/*---------------------------------------------------------------------------*\
| =========                 |                                                 |
| \\      /  F ield         | OpenFOAM: The Open Source CFD Toolbox           |
|  \\    /   O peration     | Version:  2312                                  |
|   \\  /    A nd           | Website:  www.openfoam.com                      |
|    \\/     M anipulation  |                                                 |
\*---------------------------------------------------------------------------*/
Build  : v2312 OPENFOAM=2312 version=v2312
Arch   : "LSB;label=32;scalar=64"
Exec   : fineDEMfoam
Date   : Nov 24 2025
Time   : 21:16:40
Host   : SANJEEV
PID    : 1159003
I/O    : uncollated
Case   : /usr/lib/openfoam/openfoam2312/bashyal/Applications/srcTestMain/cfd_dem/floatingCube
nProcs : 1
trapFpe: Floating point exception trapping enabled (FOAM_SIGFPE).
fileModificationChecking : Monitoring run-time modified files using timeStampMaster (fileModificationSkew 5, maxFileModificationPolls 20)
allowSystemOperations : Allowing user-supplied system call operations

// * * * * * * * * * * * * * * * * * * * * * * * * * * * * * * * * * * * * * //
Create time

Create mesh for time = 0


PIMPLE: no residual control data found. Calculations will employ 3 corrector loops

Reading field p_rgh

Reading field U

Reading/calculating face flux field phi

Reading transportProperties

Selecting incompressible transport model Newtonian
Selecting incompressible transport model Newtonian
Selecting turbulence model type RAS
Selecting RAS turbulence model kEpsilon
RAS
{
    model           kEpsilon;
    turbulence      on;
    printCoeffs     on;
    Cmu             0.09;
    C1              1.44;
    C2              1.92;
    C3              0;
    sigmak          1;
    sigmaEps        1.3;
}


Reading g

Reading hRef
Calculating field g.h

No MRF models present

No finite volume options present
Reading field epsilon

Reading field Usolid

Reading field lambda

DICPCG:  Solving for pcorr, Initial residual = 0, Final residual = 0, No Iterations 0
time step continuity errors : sum local = 0, global = 0, cumulative = 0
Courant Number mean: 0 max: 0
Initializing DEM...

Starting time loop

Courant Number mean: 0 max: 0
Interface Courant Number mean: 0 max: 0
deltaT = 0.00012
Time = 0.00012

PIMPLE: iteration 1
smoothSolver:  Solving for alpha.water, Initial residual = 0, Final residual = 0, No Iterations 0
Phase-1 volume fraction = 0.5  Min(alpha.water) = 0  Max(alpha.water) = 1
MULES: Correcting alpha.water
MULES: Correcting alpha.water
Phase-1 volume fraction = 0.5  Min(alpha.water) = 0  Max(alpha.water) = 1
DICPCG:  Solving for p_rgh, Initial residual = 1, Final residual = 8.09576e-08, No Iterations 94
time step continuity errors : sum local = 5.68516e-10, global = 3.41147e-11, cumulative = 3.41147e-11
PIMPLE: iteration 2
smoothSolver:  Solving for alpha.water, Initial residual = 5.32188e-11, Final residual = 5.32188e-11, No Iterations 0
Phase-1 volume fraction = 0.5  Min(alpha.water) = 0  Max(alpha.water) = 1
MULES: Correcting alpha.water
MULES: Correcting alpha.water
Phase-1 volume fraction = 0.5  Min(alpha.water) = 0  Max(alpha.water) = 1
DICPCG:  Solving for p_rgh, Initial residual = 2.01941e-08, Final residual = 2.01941e-08, No Iterations 0
time step continuity errors : sum local = 5.68561e-10, global = 3.41189e-11, cumulative = 6.82336e-11
PIMPLE: iteration 3
smoothSolver:  Solving for alpha.water, Initial residual = 5.32206e-11, Final residual = 5.32206e-11, No Iterations 0
Phase-1 volume fraction = 0.5  Min(alpha.water) = 0  Max(alpha.water) = 1
MULES: Correcting alpha.water
MULES: Correcting alpha.water
Phase-1 volume fraction = 0.5  Min(alpha.water) = 0  Max(alpha.water) = 1
DICPCG:  Solving for p_rgh, Initial residual = 2.01941e-08, Final residual = 2.01941e-08, No Iterations 0
time step continuity errors : sum local = 5.68561e-10, global = 3.41189e-11, cumulative = 1.02353e-10
smoothSolver:  Solving for epsilon, Initial residual = 0.00073196, Final residual = 2.3192e-12, No Iterations 1
smoothSolver:  Solving for k, Initial residual = 1, Final residual = 3.85925e-09, No Iterations 1
Particle 0 Debug:
  Vol Integrated: 0.001 (Expected: 0.001)
  Buoyancy: (-1.98413e-06 0.00981088 -1.98413e-06)
  Viscous: (-3.16655e-10 1.00277e-10 -3.16655e-10)
  Gravity: (0 -4.905 0)
  Total: (-1.98445e-06 -4.89519 -1.98445e-06)
ExecutionTime = 7.58 s  ClockTime = 8 s

Courant Number mean: 2.65057e-09 max: 2.76949e-08
Interface Courant Number mean: 0 max: 0
deltaT = 0.000144
Time = 0.000264

PIMPLE: iteration 1
smoothSolver:  Solving for alpha.water, Initial residual = 6.38647e-11, Final residual = 6.38647e-11, No Iterations 0
Phase-1 volume fraction = 0.5  Min(alpha.water) = 0  Max(alpha.water) = 1
MULES: Correcting alpha.water
MULES: Correcting alpha.water
Phase-1 volume fraction = 0.5  Min(alpha.water) = 0  Max(alpha.water) = 1
DICPCG:  Solving for p_rgh, Initial residual = 7.83994e-07, Final residual = 7.61299e-08, No Iterations 37
time step continuity errors : sum local = 3.08494e-09, global = -9.74438e-11, cumulative = 4.90875e-12
PIMPLE: iteration 2
smoothSolver:  Solving for alpha.water, Initial residual = 2.10058e-11, Final residual = 2.10058e-11, No Iterations 0
Phase-1 volume fraction = 0.5  Min(alpha.water) = 0  Max(alpha.water) = 1
MULES: Correcting alpha.water
MULES: Correcting alpha.water
Phase-1 volume fraction = 0.5  Min(alpha.water) = 0  Max(alpha.water) = 1
DICPCG:  Solving for p_rgh, Initial residual = 7.61389e-08, Final residual = 7.61389e-08, No Iterations 0
time step continuity errors : sum local = 3.0852e-09, global = -9.74684e-11, cumulative = -9.25596e-11
PIMPLE: iteration 3
smoothSolver:  Solving for alpha.water, Initial residual = 2.09154e-11, Final residual = 2.09154e-11, No Iterations 0
Phase-1 volume fraction = 0.5  Min(alpha.water) = 0  Max(alpha.water) = 1
MULES: Correcting alpha.water
MULES: Correcting alpha.water
Phase-1 volume fraction = 0.5  Min(alpha.water) = 0  Max(alpha.water) = 1
DICPCG:  Solving for p_rgh, Initial residual = 7.61389e-08, Final residual = 7.61389e-08, No Iterations 0
time step continuity errors : sum local = 3.0852e-09, global = -9.74684e-11, cumulative = -1.90028e-10
smoothSolver:  Solving for epsilon, Initial residual = 0.000878364, Final residual = 4.05497e-12, No Iterations 1
smoothSolver:  Solving for k, Initial residual = 0.958231, Final residual = 5.27821e-09, No Iterations 1
Particle 0 Debug:
  Vol Integrated: 0.001 (Expected: 0.001)
  Buoyancy: (2.01737e-06 0.0154697 2.01737e-06)
  Viscous: (3.91018e-11 2.5986e-06 3.91018e-11)
  Gravity: (0 -4.905 0)
  Total: (2.01741e-06 -4.88953 2.01741e-06)
ExecutionTime = 13.14 s  ClockTime = 13 s

Courant Number mean: 5.36629e-07 max: 1.75904e-05
Interface Courant Number mean: 0 max: 0
deltaT = 0.0001728
Time = 0.0004368

PIMPLE: iteration 1
smoothSolver:  Solving for alpha.water, Initial residual = 2.50986e-11, Final residual = 2.50986e-11, No Iterations 0
Phase-1 volume fraction = 0.5  Min(alpha.water) = 0  Max(alpha.water) = 1
MULES: Correcting alpha.water
MULES: Correcting alpha.water
Phase-1 volume fraction = 0.5  Min(alpha.water) = 0  Max(alpha.water) = 1
DICPCG:  Solving for p_rgh, Initial residual = 4.1319e-07, Final residual = 9.79573e-08, No Iterations 9
time step continuity errors : sum local = 5.71178e-09, global = -4.30245e-11, cumulative = -2.33052e-10
PIMPLE: iteration 2
smoothSolver:  Solving for alpha.water, Initial residual = 3.44899e-11, Final residual = 3.44899e-11, No Iterations 0
Phase-1 volume fraction = 0.5  Min(alpha.water) = 0  Max(alpha.water) = 1
MULES: Correcting alpha.water
MULES: Correcting alpha.water
Phase-1 volume fraction = 0.5  Min(alpha.water) = 0  Max(alpha.water) = 1
DICPCG:  Solving for p_rgh, Initial residual = 9.79687e-08, Final residual = 9.79687e-08, No Iterations 0
time step continuity errors : sum local = 5.71252e-09, global = -4.29945e-11, cumulative = -2.76047e-10
PIMPLE: iteration 3
smoothSolver:  Solving for alpha.water, Initial residual = 3.45021e-11, Final residual = 3.45021e-11, No Iterations 0
Phase-1 volume fraction = 0.5  Min(alpha.water) = 0  Max(alpha.water) = 1
MULES: Correcting alpha.water
MULES: Correcting alpha.water
Phase-1 volume fraction = 0.5  Min(alpha.water) = 0  Max(alpha.water) = 1
DICPCG:  Solving for p_rgh, Initial residual = 9.79687e-08, Final residual = 9.79687e-08, No Iterations 0
time step continuity errors : sum local = 5.71252e-09, global = -4.29945e-11, cumulative = -3.19041e-10
smoothSolver:  Solving for epsilon, Initial residual = 0.00105363, Final residual = 7.11524e-12, No Iterations 1
smoothSolver:  Solving for k, Initial residual = 0.926426, Final residual = 7.43993e-09, No Iterations 1
Particle 0 Debug:
  Vol Integrated: 0.001 (Expected: 0.001)
  Buoyancy: (-1.08928e-06 0.0161255 -1.08928e-06)
  Viscous: (3.43857e-10 5.35753e-06 3.43857e-10)
  Gravity: (0 -4.905 0)
  Total: (-1.08893e-06 -4.88887 -1.08893e-06)
ExecutionTime = 17.99 s  ClockTime = 18 s

Courant Number mean: 1.4966e-06 max: 4.96465e-05
Interface Courant Number mean: 0 max: 0
deltaT = 0.00020736
Time = 0.00064416

PIMPLE: iteration 1
smoothSolver:  Solving for alpha.water, Initial residual = 4.14025e-11, Final residual = 4.14025e-11, No Iterations 0
Phase-1 volume fraction = 0.5  Min(alpha.water) = 0  Max(alpha.water) = 1
MULES: Correcting alpha.water
MULES: Correcting alpha.water
Phase-1 volume fraction = 0.5  Min(alpha.water) = 0  Max(alpha.water) = 1
DICPCG:  Solving for p_rgh, Initial residual = 3.91301e-07, Final residual = 9.86988e-08, No Iterations 9
time step continuity errors : sum local = 8.28039e-09, global = -4.81829e-10, cumulative = -8.00871e-10
PIMPLE: iteration 2
smoothSolver:  Solving for alpha.water, Initial residual = 4.45027e-11, Final residual = 4.45027e-11, No Iterations 0
Phase-1 volume fraction = 0.5  Min(alpha.water) = 0  Max(alpha.water) = 1
MULES: Correcting alpha.water
MULES: Correcting alpha.water
Phase-1 volume fraction = 0.5  Min(alpha.water) = 0  Max(alpha.water) = 1
DICPCG:  Solving for p_rgh, Initial residual = 9.87346e-08, Final residual = 9.87346e-08, No Iterations 0
time step continuity errors : sum local = 8.28318e-09, global = -4.81971e-10, cumulative = -1.28284e-09
PIMPLE: iteration 3
smoothSolver:  Solving for alpha.water, Initial residual = 4.45118e-11, Final residual = 4.45118e-11, No Iterations 0
Phase-1 volume fraction = 0.5  Min(alpha.water) = 0  Max(alpha.water) = 1
MULES: Correcting alpha.water
MULES: Correcting alpha.water
Phase-1 volume fraction = 0.5  Min(alpha.water) = 0  Max(alpha.water) = 1
DICPCG:  Solving for p_rgh, Initial residual = 9.87346e-08, Final residual = 9.87346e-08, No Iterations 0
time step continuity errors : sum local = 8.28318e-09, global = -4.81971e-10, cumulative = -1.76481e-09
smoothSolver:  Solving for epsilon, Initial residual = 0.00126363, Final residual = 1.2524e-11, No Iterations 1
smoothSolver:  Solving for k, Initial residual = 0.901947, Final residual = 1.05878e-08, No Iterations 1
Particle 0 Debug:
  Vol Integrated: 0.001 (Expected: 0.001)
  Buoyancy: (-2.78792e-06 0.0163578 -2.78792e-06)
  Viscous: (1.56839e-10 8.39802e-06 1.56839e-10)
  Gravity: (0 -4.905 0)
  Total: (-2.78776e-06 -4.88863 -2.78776e-06)
ExecutionTime = 22.8 s  ClockTime = 23 s

Courant Number mean: 3.05638e-06 max: 0.000101627
Interface Courant Number mean: 0 max: 0
deltaT = 0.000248832
Time = 0.000892992

PIMPLE: iteration 1
smoothSolver:  Solving for alpha.water, Initial residual = 5.34142e-11, Final residual = 5.34142e-11, No Iterations 0
Phase-1 volume fraction = 0.5  Min(alpha.water) = 0  Max(alpha.water) = 1
MULES: Correcting alpha.water
MULES: Correcting alpha.water
Phase-1 volume fraction = 0.5  Min(alpha.water) = 0  Max(alpha.water) = 1
DICPCG:  Solving for p_rgh, Initial residual = 3.2337e-07, Final residual = 9.01478e-08, No Iterations 4
time step continuity errors : sum local = 1.08795e-08, global = -1.44683e-09, cumulative = -3.21165e-09
PIMPLE: iteration 2
smoothSolver:  Solving for alpha.water, Initial residual = 8.27121e-11, Final residual = 8.27121e-11, No Iterations 0
Phase-1 volume fraction = 0.5  Min(alpha.water) = 0  Max(alpha.water) = 1
MULES: Correcting alpha.water
MULES: Correcting alpha.water
Phase-1 volume fraction = 0.5  Min(alpha.water) = 0  Max(alpha.water) = 1
DICPCG:  Solving for p_rgh, Initial residual = 9.02073e-08, Final residual = 9.02073e-08, No Iterations 0
time step continuity errors : sum local = 1.08866e-08, global = -1.44723e-09, cumulative = -4.65888e-09
PIMPLE: iteration 3
smoothSolver:  Solving for alpha.water, Initial residual = 8.27146e-11, Final residual = 8.27146e-11, No Iterations 0
Phase-1 volume fraction = 0.5  Min(alpha.water) = 0  Max(alpha.water) = 1
MULES: Correcting alpha.water
MULES: Correcting alpha.water
Phase-1 volume fraction = 0.5  Min(alpha.water) = 0  Max(alpha.water) = 1
DICPCG:  Solving for p_rgh, Initial residual = 9.02073e-08, Final residual = 9.02073e-08, No Iterations 0
time step continuity errors : sum local = 1.08866e-08, global = -1.44723e-09, cumulative = -6.10612e-09
smoothSolver:  Solving for epsilon, Initial residual = 0.00151503, Final residual = 2.2122e-11, No Iterations 1
smoothSolver:  Solving for k, Initial residual = 0.883098, Final residual = 1.5197e-08, No Iterations 1
Particle 0 Debug:
  Vol Integrated: 0.001 (Expected: 0.001)
  Buoyancy: (1.55504e-06 0.0164702 1.55504e-06)
  Viscous: (9.09419e-10 1.18777e-05 9.09419e-10)
  Gravity: (0 -4.905 0)
  Total: (1.55595e-06 -4.88852 1.55595e-06)
ExecutionTime = 27.62 s  ClockTime = 28 s

Courant Number mean: 5.53083e-06 max: 0.000182983
Interface Courant Number mean: 0 max: 0
deltaT = 0.000298598
Time = 0.00119159

PIMPLE: iteration 1
smoothSolver:  Solving for alpha.water, Initial residual = 9.92576e-11, Final residual = 9.92576e-11, No Iterations 0
Phase-1 volume fraction = 0.5  Min(alpha.water) = 0  Max(alpha.water) = 1
MULES: Correcting alpha.water
MULES: Correcting alpha.water
Phase-1 volume fraction = 0.5  Min(alpha.water) = 0  Max(alpha.water) = 1
DICPCG:  Solving for p_rgh, Initial residual = 2.88105e-07, Final residual = 7.05569e-08, No Iterations 2
time step continuity errors : sum local = 1.2247e-08, global = -2.82662e-09, cumulative = -8.93274e-09
PIMPLE: iteration 2
smoothSolver:  Solving for alpha.water, Initial residual = 1.41401e-10, Final residual = 1.41401e-10, No Iterations 0
Phase-1 volume fraction = 0.5  Min(alpha.water) = 0  Max(alpha.water) = 1
MULES: Correcting alpha.water
MULES: Correcting alpha.water
Phase-1 volume fraction = 0.5  Min(alpha.water) = 0  Max(alpha.water) = 1
DICPCG:  Solving for p_rgh, Initial residual = 7.06855e-08, Final residual = 7.06855e-08, No Iterations 0
time step continuity errors : sum local = 1.22693e-08, global = -2.82726e-09, cumulative = -1.176e-08
PIMPLE: iteration 3
smoothSolver:  Solving for alpha.water, Initial residual = 1.4134e-10, Final residual = 1.4134e-10, No Iterations 0
Phase-1 volume fraction = 0.5  Min(alpha.water) = 0  Max(alpha.water) = 1
MULES: Correcting alpha.water
MULES: Correcting alpha.water
Phase-1 volume fraction = 0.5  Min(alpha.water) = 0  Max(alpha.water) = 1
DICPCG:  Solving for p_rgh, Initial residual = 7.06855e-08, Final residual = 7.06855e-08, No Iterations 0
time step continuity errors : sum local = 1.22693e-08, global = -2.82726e-09, cumulative = -1.45873e-08
smoothSolver:  Solving for epsilon, Initial residual = 0.0018157, Final residual = 3.91883e-11, No Iterations 1
smoothSolver:  Solving for k, Initial residual = 0.868605, Final residual = 2.19634e-08, No Iterations 1
Particle 0 Debug:
  Vol Integrated: 0.001 (Expected: 0.001)
  Buoyancy: (-3.89984e-07 0.0164852 -3.89984e-07)
  Viscous: (-8.45741e-10 1.59182e-05 -8.45741e-10)
  Gravity: (0 -4.905 0)
  Total: (-3.9083e-07 -4.8885 -3.9083e-07)
ExecutionTime = 32.42 s  ClockTime = 33 s

Courant Number mean: 9.31682e-06 max: 0.00030783
Interface Courant Number mean: 0 max: 0
deltaT = 0.000358318
Time = 0.00154991

PIMPLE: iteration 1
smoothSolver:  Solving for alpha.water, Initial residual = 1.69609e-10, Final residual = 1.69609e-10, No Iterations 0
Phase-1 volume fraction = 0.5  Min(alpha.water) = 0  Max(alpha.water) = 1
MULES: Correcting alpha.water
MULES: Correcting alpha.water
Phase-1 volume fraction = 0.5  Min(alpha.water) = 0  Max(alpha.water) = 1
DICPCG:  Solving for p_rgh, Initial residual = 1.86195e-07, Final residual = 6.62595e-08, No Iterations 1
time step continuity errors : sum local = 1.65376e-08, global = -5.01101e-09, cumulative = -1.95983e-08
PIMPLE: iteration 2
smoothSolver:  Solving for alpha.water, Initial residual = 2.46632e-10, Final residual = 2.46632e-10, No Iterations 0
Phase-1 volume fraction = 0.5  Min(alpha.water) = 0  Max(alpha.water) = 1
MULES: Correcting alpha.water
MULES: Correcting alpha.water
Phase-1 volume fraction = 0.5  Min(alpha.water) = 0  Max(alpha.water) = 1
DICPCG:  Solving for p_rgh, Initial residual = 6.62889e-08, Final residual = 6.62889e-08, No Iterations 0
time step continuity errors : sum local = 1.65449e-08, global = -5.01212e-09, cumulative = -2.46104e-08
PIMPLE: iteration 3
smoothSolver:  Solving for alpha.water, Initial residual = 2.46222e-10, Final residual = 2.46222e-10, No Iterations 0
Phase-1 volume fraction = 0.5  Min(alpha.water) = 0  Max(alpha.water) = 1
MULES: Correcting alpha.water
MULES: Correcting alpha.water
Phase-1 volume fraction = 0.5  Min(alpha.water) = 0  Max(alpha.water) = 1
DICPCG:  Solving for p_rgh, Initial residual = 6.6289e-08, Final residual = 6.6289e-08, No Iterations 0
time step continuity errors : sum local = 1.65449e-08, global = -5.01212e-09, cumulative = -2.96225e-08
smoothSolver:  Solving for epsilon, Initial residual = 0.00217471, Final residual = 6.95701e-11, No Iterations 1
smoothSolver:  Solving for k, Initial residual = 0.856646, Final residual = 3.18776e-08, No Iterations 1
Particle 0 Debug:
  Vol Integrated: 0.001 (Expected: 0.001)
  Buoyancy: (-9.33276e-07 0.016488 -9.33276e-07)
  Viscous: (2.72754e-10 2.06792e-05 2.72754e-10)
  Gravity: (0 -4.905 0)
  Total: (-9.33003e-07 -4.88849 -9.33003e-07)
ExecutionTime = 37.17 s  ClockTime = 38 s

Courant Number mean: 1.50371e-05 max: 0.000495583
Interface Courant Number mean: 0 max: 0
deltaT = 0.000429982
Time = 0.00197989

PIMPLE: iteration 1
smoothSolver:  Solving for alpha.water, Initial residual = 2.95466e-10, Final residual = 2.95466e-10, No Iterations 0
Phase-1 volume fraction = 0.5  Min(alpha.water) = 0  Max(alpha.water) = 1
MULES: Correcting alpha.water
MULES: Correcting alpha.water
Phase-1 volume fraction = 0.5  Min(alpha.water) = 0  Max(alpha.water) = 1
DICPCG:  Solving for p_rgh, Initial residual = 1.56624e-07, Final residual = 7.05055e-08, No Iterations 1
time step continuity errors : sum local = 2.52965e-08, global = -8.4458e-09, cumulative = -3.80683e-08
PIMPLE: iteration 2
smoothSolver:  Solving for alpha.water, Initial residual = 4.05806e-10, Final residual = 4.05806e-10, No Iterations 0
Phase-1 volume fraction = 0.5  Min(alpha.water) = 0  Max(alpha.water) = 1
MULES: Correcting alpha.water
MULES: Correcting alpha.water
Phase-1 volume fraction = 0.5  Min(alpha.water) = 0  Max(alpha.water) = 1
DICPCG:  Solving for p_rgh, Initial residual = 7.02772e-08, Final residual = 7.02772e-08, No Iterations 0
time step continuity errors : sum local = 2.52145e-08, global = -8.4478e-09, cumulative = -4.65161e-08
PIMPLE: iteration 3
smoothSolver:  Solving for alpha.water, Initial residual = 4.05786e-10, Final residual = 4.05786e-10, No Iterations 0
Phase-1 volume fraction = 0.5  Min(alpha.water) = 0  Max(alpha.water) = 1
MULES: Correcting alpha.water
MULES: Correcting alpha.water
Phase-1 volume fraction = 0.5  Min(alpha.water) = 0  Max(alpha.water) = 1
DICPCG:  Solving for p_rgh, Initial residual = 7.02771e-08, Final residual = 7.02771e-08, No Iterations 0
time step continuity errors : sum local = 2.52144e-08, global = -8.4478e-09, cumulative = -5.49639e-08
smoothSolver:  Solving for epsilon, Initial residual = 0.00260284, Final residual = 1.23529e-10, No Iterations 1
smoothSolver:  Solving for k, Initial residual = 0.846036, Final residual = 4.62842e-08, No Iterations 1
Particle 0 Debug:
  Vol Integrated: 0.001 (Expected: 0.001)
  Buoyancy: (-9.80827e-07 0.0164977 -9.80827e-07)
  Viscous: (1.09571e-09 2.63156e-05 1.09571e-09)
  Gravity: (0 -4.905 0)
  Total: (-9.79732e-07 -4.88848 -9.79732e-07)
ExecutionTime = 42.32 s  ClockTime = 43 s

Courant Number mean: 2.35967e-05 max: 0.000775778
Interface Courant Number mean: 0 max: 0
deltaT = 0.000515978
Time = 0.00249587

PIMPLE: iteration 1
smoothSolver:  Solving for alpha.water, Initial residual = 4.86944e-10, Final residual = 4.86944e-10, No Iterations 0
Phase-1 volume fraction = 0.5  Min(alpha.water) = 0  Max(alpha.water) = 1
MULES: Correcting alpha.water
MULES: Correcting alpha.water
Phase-1 volume fraction = 0.5  Min(alpha.water) = 0  Max(alpha.water) = 1
DICPCG:  Solving for p_rgh, Initial residual = 1.25137e-07, Final residual = 7.29252e-08, No Iterations 1
time step continuity errors : sum local = 3.75994e-08, global = -1.38115e-08, cumulative = -6.87754e-08
PIMPLE: iteration 2
smoothSolver:  Solving for alpha.water, Initial residual = 6.45595e-10, Final residual = 6.45595e-10, No Iterations 0
Phase-1 volume fraction = 0.5  Min(alpha.water) = 0  Max(alpha.water) = 1
MULES: Correcting alpha.water
MULES: Correcting alpha.water
Phase-1 volume fraction = 0.5  Min(alpha.water) = 0  Max(alpha.water) = 1
DICPCG:  Solving for p_rgh, Initial residual = 7.27091e-08, Final residual = 7.27091e-08, No Iterations 0
time step continuity errors : sum local = 3.74878e-08, global = -1.38151e-08, cumulative = -8.25906e-08
PIMPLE: iteration 3
smoothSolver:  Solving for alpha.water, Initial residual = 6.44958e-10, Final residual = 6.44958e-10, No Iterations 0
Phase-1 volume fraction = 0.5  Min(alpha.water) = 0  Max(alpha.water) = 1
MULES: Correcting alpha.water
MULES: Correcting alpha.water
Phase-1 volume fraction = 0.5  Min(alpha.water) = 0  Max(alpha.water) = 1
DICPCG:  Solving for p_rgh, Initial residual = 7.27091e-08, Final residual = 7.27091e-08, No Iterations 0
time step continuity errors : sum local = 3.74878e-08, global = -1.38151e-08, cumulative = -9.64057e-08
smoothSolver:  Solving for epsilon, Initial residual = 0.0031171, Final residual = 2.19324e-10, No Iterations 1
smoothSolver:  Solving for k, Initial residual = 0.835925, Final residual = 6.74915e-08, No Iterations 1
Particle 0 Debug:
  Vol Integrated: 0.001 (Expected: 0.001)
  Buoyancy: (-8.27162e-07 0.0165095 -8.27162e-07)
  Viscous: (1.3177e-09 3.30139e-05 1.3177e-09)
  Gravity: (0 -4.905 0)
  Total: (-8.25844e-07 -4.88846 -8.25844e-07)
ExecutionTime = 47.23 s  ClockTime = 48 s

Courant Number mean: 3.63102e-05 max: 0.00119839
Interface Courant Number mean: 0 max: 0
deltaT = 0.000619174
Time = 0.00311504

PIMPLE: iteration 1
smoothSolver:  Solving for alpha.water, Initial residual = 7.7395e-10, Final residual = 7.7395e-10, No Iterations 0
Phase-1 volume fraction = 0.5  Min(alpha.water) = 0  Max(alpha.water) = 1
MULES: Correcting alpha.water
MULES: Correcting alpha.water
Phase-1 volume fraction = 0.5  Min(alpha.water) = 0  Max(alpha.water) = 1
DICPCG:  Solving for p_rgh, Initial residual = 1.09518e-07, Final residual = 7.44312e-08, No Iterations 1
time step continuity errors : sum local = 5.51254e-08, global = -2.21294e-08, cumulative = -1.18535e-07
PIMPLE: iteration 2
smoothSolver:  Solving for alpha.water, Initial residual = 1.00385e-09, Final residual = 1.00385e-09, No Iterations 0
Phase-1 volume fraction = 0.5  Min(alpha.water) = 0  Max(alpha.water) = 1
MULES: Correcting alpha.water
MULES: Correcting alpha.water
Phase-1 volume fraction = 0.5  Min(alpha.water) = 0  Max(alpha.water) = 1
DICPCG:  Solving for p_rgh, Initial residual = 7.44068e-08, Final residual = 7.44068e-08, No Iterations 0
time step continuity errors : sum local = 5.51068e-08, global = -2.21359e-08, cumulative = -1.40671e-07
PIMPLE: iteration 3
smoothSolver:  Solving for alpha.water, Initial residual = 1.00123e-09, Final residual = 1.00123e-09, No Iterations 0
Phase-1 volume fraction = 0.5  Min(alpha.water) = 0  Max(alpha.water) = 1
MULES: Correcting alpha.water
MULES: Correcting alpha.water
Phase-1 volume fraction = 0.5  Min(alpha.water) = 0  Max(alpha.water) = 1
DICPCG:  Solving for p_rgh, Initial residual = 7.44074e-08, Final residual = 7.44074e-08, No Iterations 0
time step continuity errors : sum local = 5.51073e-08, global = -2.21359e-08, cumulative = -1.62807e-07
smoothSolver:  Solving for epsilon, Initial residual = 0.00373507, Final residual = 3.95434e-10, No Iterations 1
smoothSolver:  Solving for k, Initial residual = 0.824803, Final residual = 4.08045e-13, No Iterations 2
Particle 0 Debug:
  Vol Integrated: 0.001 (Expected: 0.001)
  Buoyancy: (-5.87898e-07 0.0165209 -5.87898e-07)
  Viscous: (8.77518e-10 4.09962e-05 8.77518e-10)
  Gravity: (0 -4.905 0)
  Total: (-5.87021e-07 -4.88844 -5.87021e-07)
ExecutionTime = 52.1 s  ClockTime = 52 s

Courant Number mean: 5.50833e-05 max: 0.00182552
Interface Courant Number mean: 0 max: 0
deltaT = 0.000743008
Time = 0.00385805

PIMPLE: iteration 1
smoothSolver:  Solving for alpha.water, Initial residual = 1.20148e-09, Final residual = 1.20148e-09, No Iterations 0
Phase-1 volume fraction = 0.5  Min(alpha.water) = 0  Max(alpha.water) = 1
MULES: Correcting alpha.water
MULES: Correcting alpha.water
Phase-1 volume fraction = 0.5  Min(alpha.water) = 0  Max(alpha.water) = 1
DICPCG:  Solving for p_rgh, Initial residual = 9.60291e-08, Final residual = 9.60291e-08, No Iterations 0
time step continuity errors : sum local = 1.02114e-07, global = -3.45397e-08, cumulative = -1.97347e-07
PIMPLE: iteration 2
smoothSolver:  Solving for alpha.water, Initial residual = 1.51438e-09, Final residual = 1.51438e-09, No Iterations 0
Phase-1 volume fraction = 0.5  Min(alpha.water) = 0  Max(alpha.water) = 1
MULES: Correcting alpha.water
MULES: Correcting alpha.water
Phase-1 volume fraction = 0.5  Min(alpha.water) = 0  Max(alpha.water) = 1
DICPCG:  Solving for p_rgh, Initial residual = 9.66919e-08, Final residual = 9.66919e-08, No Iterations 0
time step continuity errors : sum local = 1.02818e-07, global = -3.4551e-08, cumulative = -2.31897e-07
PIMPLE: iteration 3
smoothSolver:  Solving for alpha.water, Initial residual = 1.51517e-09, Final residual = 1.51517e-09, No Iterations 0
Phase-1 volume fraction = 0.5  Min(alpha.water) = 0  Max(alpha.water) = 1
MULES: Correcting alpha.water
MULES: Correcting alpha.water
Phase-1 volume fraction = 0.5  Min(alpha.water) = 0  Max(alpha.water) = 1
DICPCG:  Solving for p_rgh, Initial residual = 9.66945e-08, Final residual = 9.66945e-08, No Iterations 0
time step continuity errors : sum local = 1.02821e-07, global = -3.4551e-08, cumulative = -2.66448e-07
smoothSolver:  Solving for epsilon, Initial residual = 0.00448306, Final residual = 7.39436e-10, No Iterations 1
smoothSolver:  Solving for k, Initial residual = 0.810517, Final residual = 2.7192e-13, No Iterations 2
Particle 0 Debug:
  Vol Integrated: 0.001 (Expected: 0.001)
  Buoyancy: (-5.87908e-07 0.0165209 -5.87908e-07)
  Viscous: (2.53352e-10 5.05547e-05 2.53352e-10)
  Gravity: (0 -4.905 0)
  Total: (-5.87655e-07 -4.88843 -5.87655e-07)
ExecutionTime = 56.88 s  ClockTime = 57 s

Courant Number mean: 8.26652e-05 max: 0.00274856
Interface Courant Number mean: 0 max: 0
deltaT = 0.00089161
Time = 0.00474966

PIMPLE: iteration 1
smoothSolver:  Solving for alpha.water, Initial residual = 1.81821e-09, Final residual = 1.81821e-09, No Iterations 0
Phase-1 volume fraction = 0.5  Min(alpha.water) = 0  Max(alpha.water) = 1
MULES: Correcting alpha.water
MULES: Correcting alpha.water
Phase-1 volume fraction = 0.5  Min(alpha.water) = 0  Max(alpha.water) = 1
DICPCG:  Solving for p_rgh, Initial residual = 1.39496e-07, Final residual = 8.45434e-08, No Iterations 1
time step continuity errors : sum local = 1.29005e-07, global = -5.34338e-08, cumulative = -3.19882e-07
PIMPLE: iteration 2
smoothSolver:  Solving for alpha.water, Initial residual = 2.31189e-09, Final residual = 2.31189e-09, No Iterations 0
Phase-1 volume fraction = 0.5  Min(alpha.water) = 0  Max(alpha.water) = 1
MULES: Correcting alpha.water
MULES: Correcting alpha.water
Phase-1 volume fraction = 0.5  Min(alpha.water) = 0  Max(alpha.water) = 1
DICPCG:  Solving for p_rgh, Initial residual = 8.47527e-08, Final residual = 8.47527e-08, No Iterations 0
time step continuity errors : sum local = 1.29323e-07, global = -5.3454e-08, cumulative = -3.73336e-07
PIMPLE: iteration 3
smoothSolver:  Solving for alpha.water, Initial residual = 2.30541e-09, Final residual = 2.30541e-09, No Iterations 0
Phase-1 volume fraction = 0.5  Min(alpha.water) = 0  Max(alpha.water) = 1
MULES: Correcting alpha.water
MULES: Correcting alpha.water
Phase-1 volume fraction = 0.5  Min(alpha.water) = 0  Max(alpha.water) = 1
DICPCG:  Solving for p_rgh, Initial residual = 8.47582e-08, Final residual = 8.47582e-08, No Iterations 0
time step continuity errors : sum local = 1.29331e-07, global = -5.34541e-08, cumulative = -4.2679e-07
smoothSolver:  Solving for epsilon, Initial residual = 0.00539524, Final residual = 1.47709e-09, No Iterations 1
smoothSolver:  Solving for k, Initial residual = 0.789565, Final residual = 3.75724e-13, No Iterations 2
Particle 0 Debug:
  Vol Integrated: 0.001 (Expected: 0.001)
  Buoyancy: (-4.00214e-07 0.0165431 -4.00214e-07)
  Viscous: (8.81289e-10 6.19227e-05 8.81289e-10)
  Gravity: (0 -4.905 0)
  Total: (-3.99333e-07 -4.88839 -3.99333e-07)
ExecutionTime = 61.58 s  ClockTime = 62 s

Courant Number mean: 0.000123059 max: 0.00410232
Interface Courant Number mean: 0 max: 0
deltaT = 0.00106993
Time = 0.00581959

PIMPLE: iteration 1
smoothSolver:  Solving for alpha.water, Initial residual = 2.76649e-09, Final residual = 2.76649e-09, No Iterations 0
Phase-1 volume fraction = 0.5  Min(alpha.water) = 0  Max(alpha.water) = 1
MULES: Correcting alpha.water
MULES: Correcting alpha.water
Phase-1 volume fraction = 0.5  Min(alpha.water) = 0  Max(alpha.water) = 1
DICPCG:  Solving for p_rgh, Initial residual = 9.34123e-08, Final residual = 9.34123e-08, No Iterations 0
time step continuity errors : sum local = 2.04405e-07, global = -8.13415e-08, cumulative = -5.08132e-07
PIMPLE: iteration 2
smoothSolver:  Solving for alpha.water, Initial residual = 3.38186e-09, Final residual = 3.38186e-09, No Iterations 0
Phase-1 volume fraction = 0.5  Min(alpha.water) = 0  Max(alpha.water) = 1
MULES: Correcting alpha.water
MULES: Correcting alpha.water
Phase-1 volume fraction = 0.5  Min(alpha.water) = 0  Max(alpha.water) = 1
DICPCG:  Solving for p_rgh, Initial residual = 9.5785e-08, Final residual = 9.5785e-08, No Iterations 0
time step continuity errors : sum local = 2.09592e-07, global = -8.13764e-08, cumulative = -5.89508e-07
PIMPLE: iteration 3
smoothSolver:  Solving for alpha.water, Initial residual = 3.38339e-09, Final residual = 3.38339e-09, No Iterations 0
Phase-1 volume fraction = 0.5  Min(alpha.water) = 0  Max(alpha.water) = 1
MULES: Correcting alpha.water
MULES: Correcting alpha.water
Phase-1 volume fraction = 0.5  Min(alpha.water) = 0  Max(alpha.water) = 1
DICPCG:  Solving for p_rgh, Initial residual = 9.58002e-08, Final residual = 9.58002e-08, No Iterations 0
time step continuity errors : sum local = 2.09626e-07, global = -8.13765e-08, cumulative = -6.70885e-07
smoothSolver:  Solving for epsilon, Initial residual = 0.00651955, Final residual = 3.24287e-09, No Iterations 1
smoothSolver:  Solving for k, Initial residual = 0.759022, Final residual = 1.02485e-12, No Iterations 2
Particle 0 Debug:
  Vol Integrated: 0.001 (Expected: 0.001)
  Buoyancy: (-4.00214e-07 0.0165432 -4.00214e-07)
  Viscous: (1.71525e-09 7.55334e-05 1.71525e-09)
  Gravity: (0 -4.905 0)
  Total: (-3.98498e-07 -4.88838 -3.98498e-07)
ExecutionTime = 66.61 s  ClockTime = 67 s

Courant Number mean: 0.00018201 max: 0.00607922
Interface Courant Number mean: 0 max: 0
deltaT = 0.00128392
Time = 0.00710351

PIMPLE: iteration 1
smoothSolver:  Solving for alpha.water, Initial residual = 4.06007e-09, Final residual = 4.06007e-09, No Iterations 0
Phase-1 volume fraction = 0.5  Min(alpha.water) = 0  Max(alpha.water) = 1
MULES: Correcting alpha.water
MULES: Correcting alpha.water
Phase-1 volume fraction = 0.5  Min(alpha.water) = 0  Max(alpha.water) = 1
DICPCG:  Solving for p_rgh, Initial residual = 1.124e-07, Final residual = 9.27791e-08, No Iterations 3
time step continuity errors : sum local = 2.9091e-07, global = -1.33873e-07, cumulative = -8.04758e-07
PIMPLE: iteration 2
smoothSolver:  Solving for alpha.water, Initial residual = 4.70701e-09, Final residual = 4.70701e-09, No Iterations 0
Phase-1 volume fraction = 0.5  Min(alpha.water) = 0  Max(alpha.water) = 1
MULES: Correcting alpha.water
MULES: Correcting alpha.water
Phase-1 volume fraction = 0.5  Min(alpha.water) = 0  Max(alpha.water) = 1
DICPCG:  Solving for p_rgh, Initial residual = 9.6192e-08, Final residual = 9.6192e-08, No Iterations 0
time step continuity errors : sum local = 3.01602e-07, global = -1.3396e-07, cumulative = -9.38718e-07
PIMPLE: iteration 3
smoothSolver:  Solving for alpha.water, Initial residual = 4.71136e-09, Final residual = 4.71136e-09, No Iterations 0
Phase-1 volume fraction = 0.5  Min(alpha.water) = 0  Max(alpha.water) = 1
MULES: Correcting alpha.water
MULES: Correcting alpha.water
Phase-1 volume fraction = 0.5  Min(alpha.water) = 0  Max(alpha.water) = 1
DICPCG:  Solving for p_rgh, Initial residual = 9.62233e-08, Final residual = 9.62233e-08, No Iterations 0
time step continuity errors : sum local = 3.01701e-07, global = -1.3396e-07, cumulative = -1.07268e-06
smoothSolver:  Solving for epsilon, Initial residual = 0.00793354, Final residual = 8.05381e-09, No Iterations 1
smoothSolver:  Solving for k, Initial residual = 0.717056, Final residual = 4.32189e-12, No Iterations 2
Particle 0 Debug:
  Vol Integrated: 0.001 (Expected: 0.001)
  Buoyancy: (-9.28172e-07 0.0166742 -9.28172e-07)
  Viscous: (2.92675e-09 9.19279e-05 2.92675e-09)
  Gravity: (0 -4.905 0)
  Total: (-9.25246e-07 -4.88823 -9.25246e-07)
ExecutionTime = 71.81 s  ClockTime = 72 s

Courant Number mean: 0.000268441 max: 0.00896942
Interface Courant Number mean: 0 max: 0
deltaT = 0.0015407
Time = 0.00864421

PIMPLE: iteration 1
smoothSolver:  Solving for alpha.water, Initial residual = 5.65365e-09, Final residual = 5.65365e-09, No Iterations 0
Phase-1 volume fraction = 0.5  Min(alpha.water) = 0  Max(alpha.water) = 1
MULES: Correcting alpha.water
MULES: Correcting alpha.water
Phase-1 volume fraction = 0.5  Min(alpha.water) = 0  Max(alpha.water) = 1
DICPCG:  Solving for p_rgh, Initial residual = 1.70303e-07, Final residual = 7.61586e-08, No Iterations 3
time step continuity errors : sum local = 3.41865e-07, global = -2.05405e-07, cumulative = -1.27808e-06
PIMPLE: iteration 2
smoothSolver:  Solving for alpha.water, Initial residual = 6.30137e-09, Final residual = 6.30137e-09, No Iterations 0
Phase-1 volume fraction = 0.5  Min(alpha.water) = 0  Max(alpha.water) = 1
MULES: Correcting alpha.water
MULES: Correcting alpha.water
Phase-1 volume fraction = 0.5  Min(alpha.water) = 0  Max(alpha.water) = 1
DICPCG:  Solving for p_rgh, Initial residual = 8.5521e-08, Final residual = 8.5521e-08, No Iterations 0
time step continuity errors : sum local = 3.83877e-07, global = -2.05534e-07, cumulative = -1.48362e-06
PIMPLE: iteration 3
smoothSolver:  Solving for alpha.water, Initial residual = 6.30902e-09, Final residual = 6.30902e-09, No Iterations 0
Phase-1 volume fraction = 0.5  Min(alpha.water) = 0  Max(alpha.water) = 1
MULES: Correcting alpha.water
MULES: Correcting alpha.water
Phase-1 volume fraction = 0.5  Min(alpha.water) = 0  Max(alpha.water) = 1
DICPCG:  Solving for p_rgh, Initial residual = 8.56328e-08, Final residual = 8.56328e-08, No Iterations 0
time step continuity errors : sum local = 3.84379e-07, global = -2.05534e-07, cumulative = -1.68915e-06
smoothSolver:  Solving for epsilon, Initial residual = 0.00974268, Final residual = 2.24892e-08, No Iterations 1
smoothSolver:  Solving for k, Initial residual = 0.629154, Final residual = 1.9104e-11, No Iterations 2
Particle 0 Debug:
  Vol Integrated: 0.001 (Expected: 0.001)
  Buoyancy: (2.32253e-06 0.0166077 2.32253e-06)
  Viscous: (5.03934e-09 0.000111389 5.03934e-09)
  Gravity: (0 -4.905 0)
  Total: (2.32757e-06 -4.88828 2.32757e-06)
ExecutionTime = 76.8 s  ClockTime = 77 s

Courant Number mean: 0.000393943 max: 0.0131522
Interface Courant Number mean: 0 max: 0
deltaT = 0.00184884
Time = 0.0104931

PIMPLE: iteration 1
smoothSolver:  Solving for alpha.water, Initial residual = 7.57085e-09, Final residual = 7.57085e-09, No Iterations 0
Phase-1 volume fraction = 0.5  Min(alpha.water) = 0  Max(alpha.water) = 1
MULES: Correcting alpha.water
MULES: Correcting alpha.water
Phase-1 volume fraction = 0.5  Min(alpha.water) = 0  Max(alpha.water) = 1
DICPCG:  Solving for p_rgh, Initial residual = 1.65908e-07, Final residual = 7.72949e-08, No Iterations 2
time step continuity errors : sum local = 4.96199e-07, global = -3.02169e-07, cumulative = -1.99132e-06
PIMPLE: iteration 2
smoothSolver:  Solving for alpha.water, Initial residual = 8.46427e-09, Final residual = 8.46427e-09, No Iterations 0
Phase-1 volume fraction = 0.5  Min(alpha.water) = 0  Max(alpha.water) = 1
MULES: Correcting alpha.water
MULES: Correcting alpha.water
Phase-1 volume fraction = 0.5  Min(alpha.water) = 0  Max(alpha.water) = 1
DICPCG:  Solving for p_rgh, Initial residual = 8.96326e-08, Final residual = 8.96326e-08, No Iterations 0
time step continuity errors : sum local = 5.75373e-07, global = -3.02361e-07, cumulative = -2.29368e-06
PIMPLE: iteration 3
smoothSolver:  Solving for alpha.water, Initial residual = 8.47055e-09, Final residual = 8.47055e-09, No Iterations 0
Phase-1 volume fraction = 0.5  Min(alpha.water) = 0  Max(alpha.water) = 1
MULES: Correcting alpha.water
MULES: Correcting alpha.water
Phase-1 volume fraction = 0.5  Min(alpha.water) = 0  Max(alpha.water) = 1
DICPCG:  Solving for p_rgh, Initial residual = 8.98336e-08, Final residual = 8.98336e-08, No Iterations 0
time step continuity errors : sum local = 5.76663e-07, global = -3.02362e-07, cumulative = -2.59604e-06
smoothSolver:  Solving for epsilon, Initial residual = 0.0121121, Final residual = 6.87905e-08, No Iterations 1
smoothSolver:  Solving for k, Initial residual = 0.538758, Final residual = 8.36724e-11, No Iterations 2
Particle 0 Debug:
  Vol Integrated: 0.001 (Expected: 0.001)
  Buoyancy: (4.5282e-09 0.016672 4.52819e-09)
  Viscous: (4.49388e-09 0.000134605 4.49388e-09)
  Gravity: (0 -4.905 0)
  Total: (9.02208e-09 -4.88819 9.02207e-09)
ExecutionTime = 81.69 s  ClockTime = 82 s

Courant Number mean: 0.000576154 max: 0.0192342
Interface Courant Number mean: 0 max: 0
deltaT = 0.00221861
Time = 0.0127117

PIMPLE: iteration 1
smoothSolver:  Solving for alpha.water, Initial residual = 1.01647e-08, Final residual = 7.33007e-17, No Iterations 1
Phase-1 volume fraction = 0.5  Min(alpha.water) = 0  Max(alpha.water) = 1
MULES: Correcting alpha.water
MULES: Correcting alpha.water
Phase-1 volume fraction = 0.5  Min(alpha.water) = -3.36975e-20  Max(alpha.water) = 1
DICPCG:  Solving for p_rgh, Initial residual = 3.54466e-07, Final residual = 9.5579e-08, No Iterations 1
time step continuity errors : sum local = 8.76355e-07, global = -4.40055e-07, cumulative = -3.0361e-06
PIMPLE: iteration 2
smoothSolver:  Solving for alpha.water, Initial residual = 4.7751e-09, Final residual = 4.7751e-09, No Iterations 0
Phase-1 volume fraction = 0.5  Min(alpha.water) = -3.36975e-20  Max(alpha.water) = 1
MULES: Correcting alpha.water
MULES: Correcting alpha.water
Phase-1 volume fraction = 0.5  Min(alpha.water) = -3.36975e-20  Max(alpha.water) = 1
DICPCG:  Solving for p_rgh, Initial residual = 1.23489e-07, Final residual = 8.57613e-08, No Iterations 1
time step continuity errors : sum local = 7.86288e-07, global = -4.36787e-07, cumulative = -3.47288e-06
PIMPLE: iteration 3
smoothSolver:  Solving for alpha.water, Initial residual = 4.33336e-09, Final residual = 4.33336e-09, No Iterations 0
Phase-1 volume fraction = 0.5  Min(alpha.water) = -3.36975e-20  Max(alpha.water) = 1
MULES: Correcting alpha.water
MULES: Correcting alpha.water
Phase-1 volume fraction = 0.5  Min(alpha.water) = -3.36975e-20  Max(alpha.water) = 1
DICPCG:  Solving for p_rgh, Initial residual = 8.59232e-08, Final residual = 8.59232e-08, No Iterations 0
time step continuity errors : sum local = 7.87772e-07, global = -4.36773e-07, cumulative = -3.90966e-06
smoothSolver:  Solving for epsilon, Initial residual = 0.0152989, Final residual = 9.82907e-12, No Iterations 2
smoothSolver:  Solving for k, Initial residual = 0.455143, Final residual = 3.55319e-10, No Iterations 2
Particle 0 Debug:
  Vol Integrated: 0.001 (Expected: 0.001)
  Buoyancy: (1.04317e-06 0.0166228 1.04317e-06)
  Viscous: (-6.83001e-09 0.000162416 -6.83001e-09)
  Gravity: (0 -4.905 0)
  Total: (1.03634e-06 -4.88821 1.03634e-06)
ExecutionTime = 86.6 s  ClockTime = 87 s

Courant Number mean: 0.000839824 max: 0.0279992
Interface Courant Number mean: 0 max: 0
deltaT = 0.00266233
Time = 0.015374

PIMPLE: iteration 1
smoothSolver:  Solving for alpha.water, Initial residual = 1.61593e-08, Final residual = 2.16353e-16, No Iterations 1
Phase-1 volume fraction = 0.5  Min(alpha.water) = -7.23549e-72  Max(alpha.water) = 1
MULES: Correcting alpha.water
MULES: Correcting alpha.water
Phase-1 volume fraction = 0.5  Min(alpha.water) = -2.90547e-19  Max(alpha.water) = 1
DICPCG:  Solving for p_rgh, Initial residual = 5.73862e-07, Final residual = 9.89514e-08, No Iterations 2
time step continuity errors : sum local = 1.29396e-06, global = -6.20342e-07, cumulative = -4.53e-06
PIMPLE: iteration 2
smoothSolver:  Solving for alpha.water, Initial residual = 9.50792e-09, Final residual = 9.50792e-09, No Iterations 0
Phase-1 volume fraction = 0.5  Min(alpha.water) = -2.90547e-19  Max(alpha.water) = 1
MULES: Correcting alpha.water
MULES: Correcting alpha.water
Phase-1 volume fraction = 0.5  Min(alpha.water) = -2.90547e-19  Max(alpha.water) = 1
DICPCG:  Solving for p_rgh, Initial residual = 1.37493e-07, Final residual = 9.42155e-08, No Iterations 1
time step continuity errors : sum local = 1.23193e-06, global = -6.16748e-07, cumulative = -5.14675e-06
PIMPLE: iteration 3
smoothSolver:  Solving for alpha.water, Initial residual = 1.30805e-08, Final residual = 2.79823e-16, No Iterations 1
Phase-1 volume fraction = 0.5  Min(alpha.water) = -8.0926e-84  Max(alpha.water) = 1
MULES: Correcting alpha.water
MULES: Correcting alpha.water
Phase-1 volume fraction = 0.5  Min(alpha.water) = -1.38798e-18  Max(alpha.water) = 1
DICPCG:  Solving for p_rgh, Initial residual = 4.99313e-07, Final residual = 7.86438e-08, No Iterations 2
time step continuity errors : sum local = 1.02817e-06, global = -6.10342e-07, cumulative = -5.75709e-06
smoothSolver:  Solving for epsilon, Initial residual = 0.0197488, Final residual = 6.49759e-11, No Iterations 2
smoothSolver:  Solving for k, Initial residual = 0.383317, Final residual = 1.47395e-09, No Iterations 2
Particle 0 Debug:
  Vol Integrated: 0.001 (Expected: 0.001)
  Buoyancy: (-4.97367e-07 0.0166504 -4.97367e-07)
  Viscous: (-2.90338e-10 0.000195862 -2.90338e-10)
  Gravity: (0 -4.905 0)
  Total: (-4.97658e-07 -4.88815 -4.97658e-07)
ExecutionTime = 91.47 s  ClockTime = 92 s

Courant Number mean: 0.00122155 max: 0.0409545
Interface Courant Number mean: 0 max: 0
deltaT = 0.0031948
Time = 0.0185688

PIMPLE: iteration 1
smoothSolver:  Solving for alpha.water, Initial residual = 2.04469e-08, Final residual = 6.88165e-17, No Iterations 1
Phase-1 volume fraction = 0.5  Min(alpha.water) = -2.45942e-41  Max(alpha.water) = 1
MULES: Correcting alpha.water
MULES: Correcting alpha.water
Phase-1 volume fraction = 0.5  Min(alpha.water) = -1.81138e-18  Max(alpha.water) = 1
DICPCG:  Solving for p_rgh, Initial residual = 8.12406e-07, Final residual = 8.6468e-08, No Iterations 4
time step continuity errors : sum local = 1.61003e-06, global = -8.30424e-07, cumulative = -6.58751e-06
PIMPLE: iteration 2
smoothSolver:  Solving for alpha.water, Initial residual = 3.87562e-08, Final residual = 1.8814e-15, No Iterations 1
Phase-1 volume fraction = 0.5  Min(alpha.water) = -2.45751e-41  Max(alpha.water) = 1
MULES: Correcting alpha.water
MULES: Correcting alpha.water
Phase-1 volume fraction = 0.5  Min(alpha.water) = -1.14193e-17  Max(alpha.water) = 1
DICPCG:  Solving for p_rgh, Initial residual = 1.6066e-06, Final residual = 9.09489e-08, No Iterations 3
time step continuity errors : sum local = 1.69248e-06, global = -8.22727e-07, cumulative = -7.41024e-06
PIMPLE: iteration 3
smoothSolver:  Solving for alpha.water, Initial residual = 7.4056e-08, Final residual = 3.93312e-15, No Iterations 1
Phase-1 volume fraction = 0.5  Min(alpha.water) = -2.45748e-41  Max(alpha.water) = 1
MULES: Correcting alpha.water
MULES: Correcting alpha.water
Phase-1 volume fraction = 0.5  Min(alpha.water) = -2.96213e-17  Max(alpha.water) = 1
DICPCG:  Solving for p_rgh, Initial residual = 2.61112e-06, Final residual = 9.3371e-08, No Iterations 5
time step continuity errors : sum local = 1.73589e-06, global = -8.06422e-07, cumulative = -8.21666e-06
smoothSolver:  Solving for epsilon, Initial residual = 0.0261942, Final residual = 4.31685e-10, No Iterations 2
smoothSolver:  Solving for k, Initial residual = 0.325069, Final residual = 5.99484e-09, No Iterations 2
Particle 0 Debug:
  Vol Integrated: 0.001 (Expected: 0.001)
  Buoyancy: (-7.90641e-07 0.0165866 -7.90642e-07)
  Viscous: (1.21815e-09 0.000240731 1.21815e-09)
  Gravity: (0 -4.905 0)
  Total: (-7.89423e-07 -4.88817 -7.89424e-07)
ExecutionTime = 96.35 s  ClockTime = 97 s

Courant Number mean: 0.00177204 max: 0.0582667
Interface Courant Number mean: 0 max: 0
deltaT = 0.00383376
Time = 0.0224026

PIMPLE: iteration 1
smoothSolver:  Solving for alpha.water, Initial residual = 3.10763e-08, Final residual = 9.34301e-16, No Iterations 1
Phase-1 volume fraction = 0.5  Min(alpha.water) = -1.80788e-37  Max(alpha.water) = 1
MULES: Correcting alpha.water
MULES: Correcting alpha.water
Phase-1 volume fraction = 0.5  Min(alpha.water) = -3.82084e-17  Max(alpha.water) = 1
DICPCG:  Solving for p_rgh, Initial residual = 1.11488e-06, Final residual = 9.70023e-08, No Iterations 6
time step continuity errors : sum local = 2.56378e-06, global = -1.09972e-06, cumulative = -9.31638e-06
PIMPLE: iteration 2
smoothSolver:  Solving for alpha.water, Initial residual = 2.16695e-08, Final residual = 1.74848e-15, No Iterations 1
Phase-1 volume fraction = 0.5  Min(alpha.water) = -1.80722e-37  Max(alpha.water) = 1
MULES: Correcting alpha.water
MULES: Correcting alpha.water
Phase-1 volume fraction = 0.5  Min(alpha.water) = -7.09814e-17  Max(alpha.water) = 1
DICPCG:  Solving for p_rgh, Initial residual = 6.65622e-07, Final residual = 7.65492e-08, No Iterations 3
time step continuity errors : sum local = 2.0226e-06, global = -1.09953e-06, cumulative = -1.04159e-05
PIMPLE: iteration 3
smoothSolver:  Solving for alpha.water, Initial residual = 1.10768e-07, Final residual = 1.89907e-14, No Iterations 1
Phase-1 volume fraction = 0.5  Min(alpha.water) = -1.60965e-21  Max(alpha.water) = 1
MULES: Correcting alpha.water
MULES: Correcting alpha.water
Phase-1 volume fraction = 0.5  Min(alpha.water) = -1.56559e-16  Max(alpha.water) = 1
DICPCG:  Solving for p_rgh, Initial residual = 4.12126e-06, Final residual = 9.32097e-08, No Iterations 6
time step continuity errors : sum local = 2.45919e-06, global = -1.08951e-06, cumulative = -1.15054e-05
smoothSolver:  Solving for epsilon, Initial residual = 0.0360303, Final residual = 2.82041e-09, No Iterations 2
smoothSolver:  Solving for k, Initial residual = 0.281563, Final residual = 2.35308e-08, No Iterations 2
Particle 0 Debug:
  Vol Integrated: 0.001 (Expected: 0.001)
  Buoyancy: (7.77022e-07 0.0167843 7.77013e-07)
  Viscous: (5.78513e-09 0.000294137 5.78509e-09)
  Gravity: (0 -4.905 0)
  Total: (7.82807e-07 -4.88792 7.82798e-07)
ExecutionTime = 101.48 s  ClockTime = 102 s

Courant Number mean: 0.0025614 max: 0.0867996
Interface Courant Number mean: 0 max: 0
deltaT = 0.00460051
Time = 0.0270031

PIMPLE: iteration 1
smoothSolver:  Solving for alpha.water, Initial residual = 1.22072e-07, Final residual = 1.61838e-14, No Iterations 1
Phase-1 volume fraction = 0.5  Min(alpha.water) = -5.26175e-32  Max(alpha.water) = 1
MULES: Correcting alpha.water
MULES: Correcting alpha.water
Phase-1 volume fraction = 0.5  Min(alpha.water) = -3.62905e-16  Max(alpha.water) = 1
DICPCG:  Solving for p_rgh, Initial residual = 4.63659e-06, Final residual = 6.71969e-08, No Iterations 33
time step continuity errors : sum local = 2.51251e-06, global = -4.55503e-08, cumulative = -1.1551e-05
PIMPLE: iteration 2
smoothSolver:  Solving for alpha.water, Initial residual = 8.0352e-08, Final residual = 1.98589e-14, No Iterations 1
Phase-1 volume fraction = 0.5  Min(alpha.water) = -8.23976e-32  Max(alpha.water) = 1
MULES: Correcting alpha.water
MULES: Correcting alpha.water
Phase-1 volume fraction = 0.5  Min(alpha.water) = -9.04926e-16  Max(alpha.water) = 1
DICPCG:  Solving for p_rgh, Initial residual = 3.50854e-06, Final residual = 9.22458e-08, No Iterations 4
time step continuity errors : sum local = 3.45479e-06, global = -4.1335e-08, cumulative = -1.15923e-05
PIMPLE: iteration 3
smoothSolver:  Solving for alpha.water, Initial residual = 1.30261e-07, Final residual = 3.40605e-14, No Iterations 1
Phase-1 volume fraction = 0.5  Min(alpha.water) = -4.38792e-32  Max(alpha.water) = 1
MULES: Correcting alpha.water
MULES: Correcting alpha.water
Phase-1 volume fraction = 0.5  Min(alpha.water) = -1.02547e-15  Max(alpha.water) = 1
DICPCG:  Solving for p_rgh, Initial residual = 4.25563e-06, Final residual = 8.91985e-08, No Iterations 4
time step continuity errors : sum local = 3.33633e-06, global = -3.75277e-08, cumulative = -1.16298e-05
smoothSolver:  Solving for epsilon, Initial residual = 0.0519397, Final residual = 1.92203e-08, No Iterations 2
smoothSolver:  Solving for k, Initial residual = 0.252269, Final residual = 9.49264e-08, No Iterations 2
Particle 0 Debug:
  Vol Integrated: 0.001 (Expected: 0.001)
  Buoyancy: (1.68444e-06 0.0169313 1.68444e-06)
  Viscous: (1.03892e-08 0.000343285 1.03892e-08)
  Gravity: (0 -4.905 0)
  Total: (1.69483e-06 -4.88773 1.69483e-06)
ExecutionTime = 106.63 s  ClockTime = 107 s

Courant Number mean: 0.00372815 max: 0.126973
Interface Courant Number mean: 0 max: 0
deltaT = 0.00552061
Time = 0.0325237

PIMPLE: iteration 1
smoothSolver:  Solving for alpha.water, Initial residual = 6.47687e-08, Final residual = 4.37122e-15, No Iterations 1
Phase-1 volume fraction = 0.5  Min(alpha.water) = -1.02123e-15  Max(alpha.water) = 1
MULES: Correcting alpha.water
MULES: Correcting alpha.water
Phase-1 volume fraction = 0.5  Min(alpha.water) = -1.02123e-15  Max(alpha.water) = 1
DICPCG:  Solving for p_rgh, Initial residual = 3.01616e-06, Final residual = 8.71522e-08, No Iterations 4
time step continuity errors : sum local = 4.61756e-06, global = 1.76708e-06, cumulative = -9.86275e-06
PIMPLE: iteration 2
smoothSolver:  Solving for alpha.water, Initial residual = 1.90808e-07, Final residual = 7.79777e-14, No Iterations 1
Phase-1 volume fraction = 0.5  Min(alpha.water) = -1.02051e-15  Max(alpha.water) = 1.00001
MULES: Correcting alpha.water
MULES: Correcting alpha.water
Phase-1 volume fraction = 0.5  Min(alpha.water) = -1.02051e-15  Max(alpha.water) = 1.00001
DICPCG:  Solving for p_rgh, Initial residual = 6.9164e-06, Final residual = 9.23351e-08, No Iterations 8
time step continuity errors : sum local = 4.88794e-06, global = 1.75852e-06, cumulative = -8.10423e-06
PIMPLE: iteration 3
smoothSolver:  Solving for alpha.water, Initial residual = 9.5816e-08, Final residual = 4.01163e-14, No Iterations 1
Phase-1 volume fraction = 0.5  Min(alpha.water) = -1.02048e-15  Max(alpha.water) = 1.00001
MULES: Correcting alpha.water
MULES: Correcting alpha.water
Phase-1 volume fraction = 0.5  Min(alpha.water) = -1.15939e-15  Max(alpha.water) = 1.00001
DICPCG:  Solving for p_rgh, Initial residual = 1.64648e-06, Final residual = 8.32913e-08, No Iterations 3
time step continuity errors : sum local = 4.40685e-06, global = 1.75282e-06, cumulative = -6.35141e-06
smoothSolver:  Solving for epsilon, Initial residual = 0.0787535, Final residual = 1.18274e-10, No Iterations 3
smoothSolver:  Solving for k, Initial residual = 0.235089, Final residual = 3.6276e-10, No Iterations 3
Particle 0 Debug:
  Vol Integrated: 0.001 (Expected: 0.001)
  Buoyancy: (8.23358e-07 0.0169203 8.23362e-07)
  Viscous: (1.30939e-08 0.000421003 1.30939e-08)
  Gravity: (0 -4.905 0)
  Total: (8.36452e-07 -4.88766 8.36456e-07)
ExecutionTime = 111.61 s  ClockTime = 112 s

Courant Number mean: 0.00542577 max: 0.179915
Interface Courant Number mean: 0 max: 0
deltaT = 0.00662474
Time = 0.0391484

PIMPLE: iteration 1
smoothSolver:  Solving for alpha.water, Initial residual = 4.70919e-07, Final residual = 3.62603e-13, No Iterations 1
Phase-1 volume fraction = 0.5  Min(alpha.water) = -1.01451e-15  Max(alpha.water) = 1.00001
MULES: Correcting alpha.water
MULES: Correcting alpha.water
Phase-1 volume fraction = 0.5  Min(alpha.water) = -4.35354e-15  Max(alpha.water) = 1.00001
DICPCG:  Solving for p_rgh, Initial residual = 1.78366e-05, Final residual = 9.85917e-08, No Iterations 35
time step continuity errors : sum local = 7.33519e-06, global = 5.57589e-08, cumulative = -6.29565e-06
PIMPLE: iteration 2
smoothSolver:  Solving for alpha.water, Initial residual = 3.28977e-07, Final residual = 2.46437e-13, No Iterations 1
Phase-1 volume fraction = 0.5  Min(alpha.water) = -1.01306e-15  Max(alpha.water) = 1.00002
MULES: Correcting alpha.water
MULES: Correcting alpha.water
Phase-1 volume fraction = 0.5  Min(alpha.water) = -3.76192e-15  Max(alpha.water) = 1.00002
DICPCG:  Solving for p_rgh, Initial residual = 1.45577e-05, Final residual = 9.42896e-08, No Iterations 10
time step continuity errors : sum local = 7.0372e-06, global = -7.04934e-08, cumulative = -6.36614e-06
PIMPLE: iteration 3
smoothSolver:  Solving for alpha.water, Initial residual = 1.38132e-07, Final residual = 8.81061e-14, No Iterations 1
Phase-1 volume fraction = 0.5  Min(alpha.water) = -1.01284e-15  Max(alpha.water) = 1.00002
MULES: Correcting alpha.water
MULES: Correcting alpha.water
Phase-1 volume fraction = 0.5  Min(alpha.water) = -5.60556e-15  Max(alpha.water) = 1.00002
DICPCG:  Solving for p_rgh, Initial residual = 2.65418e-06, Final residual = 8.73392e-08, No Iterations 4
time step continuity errors : sum local = 6.50856e-06, global = -6.04902e-08, cumulative = -6.42663e-06
smoothSolver:  Solving for epsilon, Initial residual = 0.121649, Final residual = 1.39804e-09, No Iterations 3
smoothSolver:  Solving for k, Initial residual = 0.228189, Final residual = 2.61865e-09, No Iterations 3
Particle 0 Debug:
  Vol Integrated: 0.001 (Expected: 0.001)
  Buoyancy: (-2.52666e-06 0.017631 -2.52666e-06)
  Viscous: (-4.11534e-09 0.0004679 -4.11534e-09)
  Gravity: (0 -4.905 0)
  Total: (-2.53078e-06 -4.8869 -2.53078e-06)
ExecutionTime = 116.65 s  ClockTime = 117 s

Courant Number mean: 0.00787576 max: 0.242165
Interface Courant Number mean: 0 max: 0
deltaT = 0.00794968
Time = 0.0470981

PIMPLE: iteration 1
smoothSolver:  Solving for alpha.water, Initial residual = 1.47065e-07, Final residual = 1.2476e-14, No Iterations 1
Phase-1 volume fraction = 0.5  Min(alpha.water) = -1.00371e-15  Max(alpha.water) = 1.00001
MULES: Correcting alpha.water
MULES: Correcting alpha.water
Phase-1 volume fraction = 0.5  Min(alpha.water) = -9.09431e-15  Max(alpha.water) = 1.00001
DICPCG:  Solving for p_rgh, Initial residual = 6.95992e-06, Final residual = 9.51538e-08, No Iterations 7
time step continuity errors : sum local = 1e-05, global = -3.05542e-06, cumulative = -9.48205e-06
PIMPLE: iteration 2
smoothSolver:  Solving for alpha.water, Initial residual = 4.08572e-07, Final residual = 6.38297e-13, No Iterations 1
Phase-1 volume fraction = 0.5  Min(alpha.water) = -1.00134e-15  Max(alpha.water) = 1.00004
MULES: Correcting alpha.water
MULES: Correcting alpha.water
Phase-1 volume fraction = 0.5  Min(alpha.water) = -2.95289e-14  Max(alpha.water) = 1.00004
DICPCG:  Solving for p_rgh, Initial residual = 1.48005e-05, Final residual = 8.88569e-08, No Iterations 10
time step continuity errors : sum local = 9.2865e-06, global = -2.95006e-06, cumulative = -1.24321e-05
PIMPLE: iteration 3
smoothSolver:  Solving for alpha.water, Initial residual = 1.8265e-07, Final residual = 2.27151e-13, No Iterations 1
Phase-1 volume fraction = 0.5  Min(alpha.water) = -1.001e-15  Max(alpha.water) = 1.00001
MULES: Correcting alpha.water
MULES: Correcting alpha.water
Phase-1 volume fraction = 0.5  Min(alpha.water) = -2.89056e-14  Max(alpha.water) = 1.00001
DICPCG:  Solving for p_rgh, Initial residual = 8.57469e-06, Final residual = 9.77931e-08, No Iterations 7
time step continuity errors : sum local = 1.02429e-05, global = -2.85237e-06, cumulative = -1.52845e-05
smoothSolver:  Solving for epsilon, Initial residual = 0.190618, Final residual = 1.48851e-08, No Iterations 3
smoothSolver:  Solving for k, Initial residual = 0.237045, Final residual = 1.84154e-08, No Iterations 3
Particle 0 Debug:
  Vol Integrated: 0.001 (Expected: 0.001)
  Buoyancy: (-9.40451e-07 0.0173762 -9.40438e-07)
  Viscous: (-8.55999e-09 0.000541238 -8.55993e-09)
  Gravity: (0 -4.905 0)
  Total: (-9.49011e-07 -4.88708 -9.48998e-07)
ExecutionTime = 122.02 s  ClockTime = 122 s

Courant Number mean: 0.0114263 max: 0.364776
Interface Courant Number mean: 0 max: 0
deltaT = 0.00953962
Time = 0.0566377

PIMPLE: iteration 1
smoothSolver:  Solving for alpha.water, Initial residual = 6.62536e-07, Final residual = 1.63504e-12, No Iterations 1
Phase-1 volume fraction = 0.5  Min(alpha.water) = -9.8688e-16  Max(alpha.water) = 1.00003
MULES: Correcting alpha.water
MULES: Correcting alpha.water
Phase-1 volume fraction = 0.5  Min(alpha.water) = -8.61272e-14  Max(alpha.water) = 1.00003
DICPCG:  Solving for p_rgh, Initial residual = 2.45664e-05, Final residual = 9.5499e-08, No Iterations 35
time step continuity errors : sum local = 1.39791e-05, global = -1.1999e-07, cumulative = -1.54045e-05
PIMPLE: iteration 2
smoothSolver:  Solving for alpha.water, Initial residual = 4.35994e-07, Final residual = 8.62645e-13, No Iterations 1
Phase-1 volume fraction = 0.5  Min(alpha.water) = -9.82186e-16  Max(alpha.water) = 1.00001
MULES: Correcting alpha.water
MULES: Correcting alpha.water
Phase-1 volume fraction = 0.5  Min(alpha.water) = -1.7617e-13  Max(alpha.water) = 1.00001
DICPCG:  Solving for p_rgh, Initial residual = 1.85127e-05, Final residual = 9.84999e-08, No Iterations 14
time step continuity errors : sum local = 1.44908e-05, global = -1.90733e-07, cumulative = -1.55952e-05
PIMPLE: iteration 3
smoothSolver:  Solving for alpha.water, Initial residual = 1.83032e-07, Final residual = 2.80497e-13, No Iterations 1
Phase-1 volume fraction = 0.5  Min(alpha.water) = -9.81019e-16  Max(alpha.water) = 1.00001
MULES: Correcting alpha.water
MULES: Correcting alpha.water
Phase-1 volume fraction = 0.5  Min(alpha.water) = -2.1708e-13  Max(alpha.water) = 1.00001
DICPCG:  Solving for p_rgh, Initial residual = 2.21383e-06, Final residual = 8.30494e-08, No Iterations 3
time step continuity errors : sum local = 1.22209e-05, global = -1.83889e-07, cumulative = -1.57791e-05
smoothSolver:  Solving for epsilon, Initial residual = 0.279168, Final residual = 6.82498e-10, No Iterations 4
smoothSolver:  Solving for k, Initial residual = 0.256869, Final residual = 6.64035e-10, No Iterations 4
Particle 0 Debug:
  Vol Integrated: 0.001 (Expected: 0.001)
  Buoyancy: (8.90419e-07 0.0177383 8.90401e-07)
  Viscous: (-1.34601e-08 0.000617525 -1.34602e-08)
  Gravity: (0 -4.905 0)
  Total: (8.76959e-07 -4.88664 8.76941e-07)
ExecutionTime = 127.21 s  ClockTime = 128 s

Courant Number mean: 0.0166132 max: 0.524577
Interface Courant Number mean: 0 max: 0
deltaT = 0.0113582
Time = 0.0679959

PIMPLE: iteration 1
smoothSolver:  Solving for alpha.water, Initial residual = 6.41149e-07, Final residual = 4.05589e-12, No Iterations 1
Phase-1 volume fraction = 0.5  Min(alpha.water) = -9.5753e-16  Max(alpha.water) = 1.00003
MULES: Correcting alpha.water
MULES: Correcting alpha.water
Phase-1 volume fraction = 0.5  Min(alpha.water) = -1.37939e-12  Max(alpha.water) = 1.00003
DICPCG:  Solving for p_rgh, Initial residual = 3.06149e-05, Final residual = 9.42456e-08, No Iterations 17
time step continuity errors : sum local = 1.90974e-05, global = 4.81698e-06, cumulative = -1.09621e-05
PIMPLE: iteration 2
smoothSolver:  Solving for alpha.water, Initial residual = 5.52964e-07, Final residual = 4.01789e-12, No Iterations 1
Phase-1 volume fraction = 0.5  Min(alpha.water) = -9.48467e-16  Max(alpha.water) = 1.00004
MULES: Correcting alpha.water
MULES: Correcting alpha.water
Phase-1 volume fraction = 0.5  Min(alpha.water) = -1.58849e-12  Max(alpha.water) = 1.00004
DICPCG:  Solving for p_rgh, Initial residual = 3.36227e-05, Final residual = 9.73899e-08, No Iterations 12
time step continuity errors : sum local = 1.98082e-05, global = 4.6787e-06, cumulative = -6.28341e-06
PIMPLE: iteration 3
smoothSolver:  Solving for alpha.water, Initial residual = 5.43294e-07, Final residual = 5.11421e-12, No Iterations 1
Phase-1 volume fraction = 0.5  Min(alpha.water) = -9.4512e-16  Max(alpha.water) = 1.00002
MULES: Correcting alpha.water
MULES: Correcting alpha.water
Phase-1 volume fraction = 0.5  Min(alpha.water) = -3.73509e-12  Max(alpha.water) = 1.00002
DICPCG:  Solving for p_rgh, Initial residual = 2.62586e-05, Final residual = 9.40626e-08, No Iterations 9
time step continuity errors : sum local = 1.90831e-05, global = 4.21956e-06, cumulative = -2.06385e-06
smoothSolver:  Solving for epsilon, Initial residual = 0.34647, Final residual = 1.03487e-08, No Iterations 4
smoothSolver:  Solving for k, Initial residual = 0.274542, Final residual = 8.53376e-09, No Iterations 4
Particle 0 Debug:
  Vol Integrated: 0.001 (Expected: 0.001)
  Buoyancy: (-7.65076e-06 0.0184893 -7.65087e-06)
  Viscous: (-3.7874e-08 0.000683012 -3.7875e-08)
  Gravity: (0 -4.905 0)
  Total: (-7.68863e-06 -4.88583 -7.68875e-06)
ExecutionTime = 132.17 s  ClockTime = 133 s

Courant Number mean: 0.0241031 max: 0.713887
Interface Courant Number mean: 0 max: 0
deltaT = 0.0129492
Time = 0.0809451

PIMPLE: iteration 1
smoothSolver:  Solving for alpha.water, Initial residual = 5.3519e-07, Final residual = 3.89246e-12, No Iterations 1
Phase-1 volume fraction = 0.5  Min(alpha.water) = -9.04309e-16  Max(alpha.water) = 1.00002
MULES: Correcting alpha.water
MULES: Correcting alpha.water
Phase-1 volume fraction = 0.5  Min(alpha.water) = -3.99412e-12  Max(alpha.water) = 1.00002
DICPCG:  Solving for p_rgh, Initial residual = 1.97225e-05, Final residual = 9.71203e-08, No Iterations 26
time step continuity errors : sum local = 2.5032e-05, global = 3.71911e-06, cumulative = 1.65527e-06
PIMPLE: iteration 2
smoothSolver:  Solving for alpha.water, Initial residual = 4.44305e-07, Final residual = 7.70456e-12, No Iterations 1
Phase-1 volume fraction = 0.5  Min(alpha.water) = -8.88707e-16  Max(alpha.water) = 1.00002
MULES: Correcting alpha.water
MULES: Correcting alpha.water
Phase-1 volume fraction = 0.5  Min(alpha.water) = -1.19022e-11  Max(alpha.water) = 1.00002
DICPCG:  Solving for p_rgh, Initial residual = 1.06453e-05, Final residual = 9.24557e-08, No Iterations 18
time step continuity errors : sum local = 2.37437e-05, global = 4.82608e-06, cumulative = 6.48134e-06
PIMPLE: iteration 3
smoothSolver:  Solving for alpha.water, Initial residual = 3.08134e-07, Final residual = 6.00901e-12, No Iterations 1
Phase-1 volume fraction = 0.5  Min(alpha.water) = -8.81391e-16  Max(alpha.water) = 1.00004
MULES: Correcting alpha.water
MULES: Correcting alpha.water
Phase-1 volume fraction = 0.5  Min(alpha.water) = -1.66076e-11  Max(alpha.water) = 1.00004
DICPCG:  Solving for p_rgh, Initial residual = 4.09672e-06, Final residual = 9.77035e-08, No Iterations 7
time step continuity errors : sum local = 2.50651e-05, global = 5.52632e-06, cumulative = 1.20077e-05
smoothSolver:  Solving for epsilon, Initial residual = 0.369798, Final residual = 1.8336e-09, No Iterations 5
smoothSolver:  Solving for k, Initial residual = 0.284176, Final residual = 8.49841e-08, No Iterations 4
Particle 0 Debug:
  Vol Integrated: 0.001 (Expected: 0.001)
  Buoyancy: (6.14803e-06 0.0196116 6.14805e-06)
  Viscous: (1.80483e-08 0.000806148 1.80484e-08)
  Gravity: (0 -4.905 0)
  Total: (6.16607e-06 -4.88458 6.1661e-06)
ExecutionTime = 137.51 s  ClockTime = 138 s

Courant Number mean: 0.0330506 max: 0.989449
Interface Courant Number mean: 0 max: 0
deltaT = 0.0130873
Time = 0.0940323

PIMPLE: iteration 1
smoothSolver:  Solving for alpha.water, Initial residual = 7.32902e-07, Final residual = 6.64707e-12, No Iterations 1
Phase-1 volume fraction = 0.5  Min(alpha.water) = -8.17089e-16  Max(alpha.water) = 1.00007
MULES: Correcting alpha.water
MULES: Correcting alpha.water
Phase-1 volume fraction = 0.5  Min(alpha.water) = -1.60465e-11  Max(alpha.water) = 1.00007
DICPCG:  Solving for p_rgh, Initial residual = 2.91413e-05, Final residual = 8.54258e-08, No Iterations 25
time step continuity errors : sum local = 2.22714e-05, global = 2.55844e-06, cumulative = 1.45661e-05
PIMPLE: iteration 2
smoothSolver:  Solving for alpha.water, Initial residual = 7.98185e-07, Final residual = 3.69738e-11, No Iterations 1
Phase-1 volume fraction = 0.5  Min(alpha.water) = -7.7996e-16  Max(alpha.water) = 1.00004
MULES: Correcting alpha.water
MULES: Correcting alpha.water
Phase-1 volume fraction = 0.5  Min(alpha.water) = -1.09217e-10  Max(alpha.water) = 1.00004
DICPCG:  Solving for p_rgh, Initial residual = 2.96718e-05, Final residual = 9.78464e-08, No Iterations 12
time step continuity errors : sum local = 2.52927e-05, global = 4.09077e-07, cumulative = 1.49752e-05
PIMPLE: iteration 3
smoothSolver:  Solving for alpha.water, Initial residual = 4.52992e-07, Final residual = 1.65432e-11, No Iterations 1
Phase-1 volume fraction = 0.5  Min(alpha.water) = -7.6406e-16  Max(alpha.water) = 1.00007
MULES: Correcting alpha.water
MULES: Correcting alpha.water
Phase-1 volume fraction = 0.5  Min(alpha.water) = -1.20799e-10  Max(alpha.water) = 1.00007
DICPCG:  Solving for p_rgh, Initial residual = 1.82994e-05, Final residual = 9.87262e-08, No Iterations 9
time step continuity errors : sum local = 2.5511e-05, global = 2.6532e-07, cumulative = 1.52405e-05
smoothSolver:  Solving for epsilon, Initial residual = 0.344725, Final residual = 1.05585e-08, No Iterations 5
smoothSolver:  Solving for k, Initial residual = 0.264428, Final residual = 8.19063e-09, No Iterations 5
Particle 0 Debug:
  Vol Integrated: 0.001 (Expected: 0.001)
  Buoyancy: (1.46142e-06 0.0232056 1.46157e-06)
  Viscous: (-1.03541e-10 0.000848541 -1.02628e-10)
  Gravity: (0 -4.905 0)
  Total: (1.46132e-06 -4.88095 1.46147e-06)
ExecutionTime = 142.95 s  ClockTime = 143 s

Courant Number mean: 0.0402439 max: 1.22053
Interface Courant Number mean: 0 max: 0
deltaT = 0.0107226
Time = 0.104755

PIMPLE: iteration 1
smoothSolver:  Solving for alpha.water, Initial residual = 1.07332e-06, Final residual = 3.40653e-11, No Iterations 1
Phase-1 volume fraction = 0.5  Min(alpha.water) = -6.67975e-16  Max(alpha.water) = 1.00004
MULES: Correcting alpha.water
MULES: Correcting alpha.water
Phase-1 volume fraction = 0.5  Min(alpha.water) = -7.66984e-11  Max(alpha.water) = 1.00004
DICPCG:  Solving for p_rgh, Initial residual = 4.61121e-05, Final residual = 7.61026e-08, No Iterations 28
time step continuity errors : sum local = 1.34177e-05, global = -3.83021e-06, cumulative = 1.14103e-05
PIMPLE: iteration 2
smoothSolver:  Solving for alpha.water, Initial residual = 6.06545e-07, Final residual = 7.38397e-11, No Iterations 1
Phase-1 volume fraction = 0.5  Min(alpha.water) = -5.76222e-16  Max(alpha.water) = 1.00008
MULES: Correcting alpha.water
MULES: Correcting alpha.water
Phase-1 volume fraction = 0.5  Min(alpha.water) = -4.82902e-10  Max(alpha.water) = 1.00008
DICPCG:  Solving for p_rgh, Initial residual = 2.01968e-05, Final residual = 9.54426e-08, No Iterations 22
time step continuity errors : sum local = 1.66177e-05, global = -2.18676e-06, cumulative = 9.22352e-06
PIMPLE: iteration 3
smoothSolver:  Solving for alpha.water, Initial residual = 2.5327e-07, Final residual = 4.96811e-11, No Iterations 1
Phase-1 volume fraction = 0.5  Min(alpha.water) = -5.36237e-16  Max(alpha.water) = 1.00007
MULES: Correcting alpha.water
MULES: Correcting alpha.water
Phase-1 volume fraction = 0.5  Min(alpha.water) = -7.88901e-10  Max(alpha.water) = 1.00007
DICPCG:  Solving for p_rgh, Initial residual = 4.40148e-06, Final residual = 9.68072e-08, No Iterations 6
time step continuity errors : sum local = 1.68334e-05, global = -1.18972e-06, cumulative = 8.03381e-06
smoothSolver:  Solving for epsilon, Initial residual = 0.271688, Final residual = 1.0773e-08, No Iterations 5
smoothSolver:  Solving for k, Initial residual = 0.207885, Final residual = 1.00131e-08, No Iterations 5
Particle 0 Debug:
  Vol Integrated: 0.001 (Expected: 0.001)
  Buoyancy: (-3.60232e-06 0.029951 -3.60239e-06)
  Viscous: (2.42632e-08 0.00095482 2.42631e-08)
  Gravity: (0 -4.905 0)
  Total: (-3.57806e-06 -4.87409 -3.57813e-06)
ExecutionTime = 148.14 s  ClockTime = 148 s

Courant Number mean: 0.0383076 max: 1.23414
Interface Courant Number mean: 0 max: 0
deltaT = 0.00868836
Time = 0.113443

PIMPLE: iteration 1
smoothSolver:  Solving for alpha.water, Initial residual = 1.12845e-06, Final residual = 8.72175e-11, No Iterations 1
Phase-1 volume fraction = 0.5  Min(alpha.water) = -3.94966e-16  Max(alpha.water) = 1.00007
MULES: Correcting alpha.water
MULES: Correcting alpha.water
Phase-1 volume fraction = 0.5  Min(alpha.water) = -6.98538e-10  Max(alpha.water) = 1.00007
DICPCG:  Solving for p_rgh, Initial residual = 4.86876e-05, Final residual = 9.208e-08, No Iterations 28
time step continuity errors : sum local = 1.0646e-05, global = -3.15268e-06, cumulative = 4.88113e-06
PIMPLE: iteration 2
smoothSolver:  Solving for alpha.water, Initial residual = 8.75009e-07, Final residual = 5.05123e-10, No Iterations 1
Phase-1 volume fraction = 0.5  Min(alpha.water) = -2.85678e-16  Max(alpha.water) = 1.00007
MULES: Correcting alpha.water
MULES: Correcting alpha.water
Phase-1 volume fraction = 0.5  Min(alpha.water) = -6.77744e-09  Max(alpha.water) = 1.00007
DICPCG:  Solving for p_rgh, Initial residual = 2.76098e-05, Final residual = 9.5705e-08, No Iterations 22
time step continuity errors : sum local = 1.09039e-05, global = -2.06059e-06, cumulative = 2.82054e-06
PIMPLE: iteration 3
smoothSolver:  Solving for alpha.water, Initial residual = 4.75757e-07, Final residual = 5.00398e-10, No Iterations 1
Phase-1 volume fraction = 0.5  Min(alpha.water) = -2.85864e-16  Max(alpha.water) = 1.00007
MULES: Correcting alpha.water
MULES: Correcting alpha.water
Phase-1 volume fraction = 0.5  Min(alpha.water) = -1.86429e-08  Max(alpha.water) = 1.00007
DICPCG:  Solving for p_rgh, Initial residual = 6.97386e-06, Final residual = 9.1494e-08, No Iterations 6
time step continuity errors : sum local = 1.04066e-05, global = -1.50613e-06, cumulative = 1.31441e-06
smoothSolver:  Solving for epsilon, Initial residual = 0.217497, Final residual = 1.30253e-08, No Iterations 5
smoothSolver:  Solving for k, Initial residual = 0.171469, Final residual = 1.31385e-08, No Iterations 5
Particle 0 Debug:
  Vol Integrated: 0.001 (Expected: 0.001)
  Buoyancy: (-4.55191e-06 0.0439334 -4.5519e-06)
  Viscous: (-2.58787e-09 0.00111035 -2.58784e-09)
  Gravity: (0 -4.905 0)
  Total: (-4.55449e-06 -4.85996 -4.55449e-06)
ExecutionTime = 153.53 s  ClockTime = 154 s

Courant Number mean: 0.0344429 max: 1.26844
Interface Courant Number mean: 0 max: 0
deltaT = 0.00684965
Time = 0.120293

PIMPLE: iteration 1
smoothSolver:  Solving for alpha.water, Initial residual = 1.50836e-06, Final residual = 6.17133e-10, No Iterations 1
Phase-1 volume fraction = 0.5  Min(alpha.water) = -1.70258e-16  Max(alpha.water) = 1.00007
MULES: Correcting alpha.water
MULES: Correcting alpha.water
Phase-1 volume fraction = 0.5  Min(alpha.water) = -2.68702e-08  Max(alpha.water) = 1.00007
DICPCG:  Solving for p_rgh, Initial residual = 5.60655e-05, Final residual = 7.83178e-08, No Iterations 42
time step continuity errors : sum local = 5.53619e-06, global = -1.43612e-06, cumulative = -1.21713e-07
PIMPLE: iteration 2
smoothSolver:  Solving for alpha.water, Initial residual = 4.18762e-05, Final residual = 5.8329e-09, No Iterations 3
Phase-1 volume fraction = 0.5  Min(alpha.water) = -1.6835e-16  Max(alpha.water) = 1.00007
MULES: Correcting alpha.water
MULES: Correcting alpha.water
Phase-1 volume fraction = 0.5  Min(alpha.water) = -5.95587e-06  Max(alpha.water) = 1.00007
DICPCG:  Solving for p_rgh, Initial residual = 0.000322132, Final residual = 8.4107e-08, No Iterations 45
time step continuity errors : sum local = 5.4395e-06, global = 9.75963e-09, cumulative = -1.11953e-07
PIMPLE: iteration 3
smoothSolver:  Solving for alpha.water, Initial residual = 3.13902e-05, Final residual = 3.50703e-09, No Iterations 3
Phase-1 volume fraction = 0.5  Min(alpha.water) = -3.0895e-10  Max(alpha.water) = 1.00007
MULES: Correcting alpha.water
MULES: Correcting alpha.water
Phase-1 volume fraction = 0.5  Min(alpha.water) = -4.52508e-06  Max(alpha.water) = 1.00007
DICPCG:  Solving for p_rgh, Initial residual = 0.000246232, Final residual = 9.0284e-08, No Iterations 43
time step continuity errors : sum local = 5.66917e-06, global = -2.98345e-07, cumulative = -4.10298e-07
smoothSolver:  Solving for epsilon, Initial residual = 0.186436, Final residual = 1.92792e-08, No Iterations 5
smoothSolver:  Solving for k, Initial residual = 0.156616, Final residual = 1.89597e-08, No Iterations 5
Particle 0 Debug:
  Vol Integrated: 0.001 (Expected: 0.001)
  Buoyancy: (-2.228e-05 2.02957 -2.228e-05)
  Viscous: (-4.86355e-08 0.00136224 -4.86355e-08)
  Gravity: (0 -4.905 0)
  Total: (-2.23286e-05 -2.87407 -2.23286e-05)
ExecutionTime = 158.96 s  ClockTime = 159 s

Courant Number mean: 0.029329 max: 1.32462
Interface Courant Number mean: 0.000899708 max: 1.22744
deltaT = 0.00517104
Time = 0.125464

PIMPLE: iteration 1
smoothSolver:  Solving for alpha.water, Initial residual = 4.13897e-05, Final residual = 9.71702e-10, No Iterations 3
Phase-1 volume fraction = 0.5  Min(alpha.water) = -8.66354e-07  Max(alpha.water) = 1.00007
MULES: Correcting alpha.water
MULES: Correcting alpha.water
Phase-1 volume fraction = 0.5  Min(alpha.water) = -8.66239e-07  Max(alpha.water) = 1.00007
DICPCG:  Solving for p_rgh, Initial residual = 0.000415962, Final residual = 7.37762e-08, No Iterations 75
time step continuity errors : sum local = 2.53825e-06, global = 1.12876e-07, cumulative = -2.97423e-07
PIMPLE: iteration 2
smoothSolver:  Solving for alpha.water, Initial residual = 0.000175168, Final residual = 8.63114e-09, No Iterations 3
Phase-1 volume fraction = 0.5  Min(alpha.water) = -2.54769e-06  Max(alpha.water) = 1.00007
MULES: Correcting alpha.water
MULES: Correcting alpha.water
Phase-1 volume fraction = 0.5  Min(alpha.water) = -8.20024e-06  Max(alpha.water) = 1.00007
DICPCG:  Solving for p_rgh, Initial residual = 0.00140314, Final residual = 9.52603e-08, No Iterations 55
time step continuity errors : sum local = 2.94315e-06, global = 2.67558e-07, cumulative = -2.98649e-08
PIMPLE: iteration 3
smoothSolver:  Solving for alpha.water, Initial residual = 0.000111273, Final residual = 1.31689e-09, No Iterations 3
Phase-1 volume fraction = 0.5  Min(alpha.water) = -1.02321e-06  Max(alpha.water) = 1.00007
MULES: Correcting alpha.water
MULES: Correcting alpha.water
Phase-1 volume fraction = 0.5  Min(alpha.water) = -4.7789e-06  Max(alpha.water) = 1.00007
DICPCG:  Solving for p_rgh, Initial residual = 0.000177071, Final residual = 8.73898e-08, No Iterations 43
time step continuity errors : sum local = 2.6928e-06, global = -8.03028e-07, cumulative = -8.32893e-07
smoothSolver:  Solving for epsilon, Initial residual = 0.165781, Final residual = 6.2159e-09, No Iterations 5
smoothSolver:  Solving for k, Initial residual = 0.142256, Final residual = 6.96377e-09, No Iterations 5
Particle 0 Debug:
  Vol Integrated: 0.001 (Expected: 0.001)
  Buoyancy: (2.15622e-05 9.45302 2.15622e-05)
  Viscous: (4.70593e-08 0.0015593 4.70591e-08)
  Gravity: (0 -4.905 0)
  Total: (2.16093e-05 4.54958 2.16093e-05)
ExecutionTime = 165.2 s  ClockTime = 166 s

Courant Number mean: 0.0233577 max: 0.981703
Interface Courant Number mean: 0.000962335 max: 0.781806
deltaT = 0.00526742
Time = 0.130731

PIMPLE: iteration 1
smoothSolver:  Solving for alpha.water, Initial residual = 0.000194992, Final residual = 4.20874e-09, No Iterations 3
Phase-1 volume fraction = 0.5  Min(alpha.water) = -6.08973e-07  Max(alpha.water) = 1.00007
MULES: Correcting alpha.water
MULES: Correcting alpha.water
Phase-1 volume fraction = 0.5  Min(alpha.water) = -8.42691e-06  Max(alpha.water) = 1.00007
DICPCG:  Solving for p_rgh, Initial residual = 0.00160942, Final residual = 9.65559e-08, No Iterations 70
time step continuity errors : sum local = 2.91414e-06, global = 6.6648e-08, cumulative = -7.66245e-07
PIMPLE: iteration 2
smoothSolver:  Solving for alpha.water, Initial residual = 0.000256031, Final residual = 6.18979e-09, No Iterations 3
Phase-1 volume fraction = 0.5  Min(alpha.water) = -2.80763e-06  Max(alpha.water) = 1.00007
MULES: Correcting alpha.water
MULES: Correcting alpha.water
Phase-1 volume fraction = 0.5  Min(alpha.water) = -2.90562e-05  Max(alpha.water) = 1.00007
DICPCG:  Solving for p_rgh, Initial residual = 0.00177912, Final residual = 9.436e-08, No Iterations 50
time step continuity errors : sum local = 2.77989e-06, global = 4.65652e-07, cumulative = -3.00593e-07
PIMPLE: iteration 3
smoothSolver:  Solving for alpha.water, Initial residual = 0.00020361, Final residual = 2.13441e-09, No Iterations 3
Phase-1 volume fraction = 0.5  Min(alpha.water) = -2.77869e-06  Max(alpha.water) = 1.00007
MULES: Correcting alpha.water
MULES: Correcting alpha.water
Phase-1 volume fraction = 0.5  Min(alpha.water) = -5.47017e-05  Max(alpha.water) = 1.00007
DICPCG:  Solving for p_rgh, Initial residual = 0.000177436, Final residual = 8.88702e-08, No Iterations 72
time step continuity errors : sum local = 2.62231e-06, global = 2.21827e-08, cumulative = -2.7841e-07
smoothSolver:  Solving for epsilon, Initial residual = 0.163936, Final residual = 1.55641e-08, No Iterations 5
smoothSolver:  Solving for k, Initial residual = 0.132608, Final residual = 1.82351e-08, No Iterations 5
Particle 0 Debug:
  Vol Integrated: 0.001 (Expected: 0.001)
  Buoyancy: (-6.9388e-06 17.1811 -6.93862e-06)
  Viscous: (1.97754e-08 0.00120898 1.97754e-08)
  Gravity: (0 -4.905 0)
  Total: (-6.91903e-06 12.2773 -6.91884e-06)
ExecutionTime = 171.19 s  ClockTime = 172 s

Courant Number mean: 0.0246252 max: 0.950794
Interface Courant Number mean: 0.00122527 max: 0.76708
deltaT = 0.00554002
Time = 0.136271

PIMPLE: iteration 1
smoothSolver:  Solving for alpha.water, Initial residual = 0.0004013, Final residual = 8.9104e-09, No Iterations 3
Phase-1 volume fraction = 0.5  Min(alpha.water) = -1.63872e-06  Max(alpha.water) = 1.00007
MULES: Correcting alpha.water
MULES: Correcting alpha.water
Phase-1 volume fraction = 0.5  Min(alpha.water) = -8.5861e-05  Max(alpha.water) = 1.00007
DICPCG:  Solving for p_rgh, Initial residual = 0.00296408, Final residual = 9.72835e-08, No Iterations 75
time step continuity errors : sum local = 3.09453e-06, global = -3.68155e-08, cumulative = -3.15226e-07
PIMPLE: iteration 2
smoothSolver:  Solving for alpha.water, Initial residual = 0.000255981, Final residual = 2.69658e-09, No Iterations 3
Phase-1 volume fraction = 0.5  Min(alpha.water) = -3.45632e-05  Max(alpha.water) = 1.00007
MULES: Correcting alpha.water
MULES: Correcting alpha.water
[...]
smoothSolver:  Solving for alpha.water, Initial residual = 0.000370569, Final residual = 8.87727e-09, No Iterations 2
Phase-1 volume fraction = 0.5  Min(alpha.water) = -2.18741e-06  Max(alpha.water) = 1.00023
MULES: Correcting alpha.water
MULES: Correcting alpha.water
Phase-1 volume fraction = 0.5  Min(alpha.water) = -1.06291e-07  Max(alpha.water) = 1.00023
DICPCG:  Solving for p_rgh, Initial residual = 0.000567673, Final residual = 9.60112e-08, No Iterations 44
time step continuity errors : sum local = 1.50818e-05, global = -2.00029e-06, cumulative = -0.000254564
smoothSolver:  Solving for epsilon, Initial residual = 0.0273272, Final residual = 3.07695e-08, No Iterations 6
smoothSolver:  Solving for k, Initial residual = 0.0177386, Final residual = 9.42524e-08, No Iterations 6
Particle 0 Debug:
  Vol Integrated: 0.001 (Expected: 0.001)
  Buoyancy: (0.00128903 11.5399 0.00128896)
  Viscous: (-1.71828e-06 0.000129012 -1.71861e-06)
  Gravity: (0 -4.905 0)
  Total: (0.00128731 6.63506 0.00128724)
ExecutionTime = 542.61 s  ClockTime = 543 s

Courant Number mean: 0.0186178 max: 0.557258
Interface Courant Number mean: 0.00200828 max: 0.356749
deltaT = 0.0149304
Time = 1.4645331138

PIMPLE: iteration 1
smoothSolver:  Solving for alpha.water, Initial residual = 0.000543701, Final residual = 1.45502e-10, No Iterations 3
Phase-1 volume fraction = 0.5  Min(alpha.water) = -1.1712e-08  Max(alpha.water) = 1.00022
MULES: Correcting alpha.water
MULES: Correcting alpha.water
Phase-1 volume fraction = 0.5  Min(alpha.water) = -1.17117e-08  Max(alpha.water) = 1.00022
DICPCG:  Solving for p_rgh, Initial residual = 0.00210245, Final residual = 9.88009e-08, No Iterations 63
time step continuity errors : sum local = 2.15343e-05, global = 5.93956e-06, cumulative = -0.000248624
PIMPLE: iteration 2
smoothSolver:  Solving for alpha.water, Initial residual = 0.000435206, Final residual = 2.23495e-09, No Iterations 2
Phase-1 volume fraction = 0.5  Min(alpha.water) = -1.47418e-08  Max(alpha.water) = 1.00023
MULES: Correcting alpha.water
MULES: Correcting alpha.water
Phase-1 volume fraction = 0.5  Min(alpha.water) = -1.47415e-08  Max(alpha.water) = 1.00023
DICPCG:  Solving for p_rgh, Initial residual = 0.00157797, Final residual = 9.37989e-08, No Iterations 44
time step continuity errors : sum local = 2.06655e-05, global = -6.24716e-06, cumulative = -0.000254872
PIMPLE: iteration 3
smoothSolver:  Solving for alpha.water, Initial residual = 0.000316168, Final residual = 8.51222e-10, No Iterations 2
Phase-1 volume fraction = 0.5  Min(alpha.water) = -1.38588e-08  Max(alpha.water) = 1.00023
MULES: Correcting alpha.water
MULES: Correcting alpha.water
Phase-1 volume fraction = 0.5  Min(alpha.water) = -1.38582e-08  Max(alpha.water) = 1.00023
DICPCG:  Solving for p_rgh, Initial residual = 0.000985455, Final residual = 9.03526e-08, No Iterations 42
time step continuity errors : sum local = 1.96678e-05, global = -2.9751e-06, cumulative = -0.000257847
smoothSolver:  Solving for epsilon, Initial residual = 0.0252224, Final residual = 7.97475e-08, No Iterations 6
smoothSolver:  Solving for k, Initial residual = 0.0154517, Final residual = 4.65481e-08, No Iterations 7
Particle 0 Debug:
  Vol Integrated: 0.001 (Expected: 0.001)
  Buoyancy: (0.0151531 10.2934 0.0151705)
  Viscous: (2.59762e-06 -0.000185114 2.59714e-06)
  Gravity: (0 -4.905 0)
  Total: (0.0151557 5.38822 0.0151731)
ExecutionTime = 548.35 s  ClockTime = 549 s

Courant Number mean: 0.0156506 max: 0.469805
Interface Courant Number mean: 0.00154583 max: 0.229815
deltaT = 0.0179165
Time = 1.4824496023

PIMPLE: iteration 1
smoothSolver:  Solving for alpha.water, Initial residual = 0.000409676, Final residual = 2.37897e-09, No Iterations 2
Phase-1 volume fraction = 0.5  Min(alpha.water) = 0  Max(alpha.water) = 1.00023
MULES: Correcting alpha.water
MULES: Correcting alpha.water
Phase-1 volume fraction = 0.5  Min(alpha.water) = 0  Max(alpha.water) = 1.00023
DICPCG:  Solving for p_rgh, Initial residual = 0.0015182, Final residual = 9.86372e-08, No Iterations 45
time step continuity errors : sum local = 3.07509e-05, global = 5.76378e-06, cumulative = -0.000252083
PIMPLE: iteration 2
smoothSolver:  Solving for alpha.water, Initial residual = 0.00044123, Final residual = 2.05334e-09, No Iterations 2
Phase-1 volume fraction = 0.5  Min(alpha.water) = 2.1415e-111  Max(alpha.water) = 1.00024
MULES: Correcting alpha.water
MULES: Correcting alpha.water
Phase-1 volume fraction = 0.5  Min(alpha.water) = 2.1415e-111  Max(alpha.water) = 1.00024
DICPCG:  Solving for p_rgh, Initial residual = 0.00136133, Final residual = 9.95651e-08, No Iterations 27
time step continuity errors : sum local = 3.13594e-05, global = 4.6435e-06, cumulative = -0.000247439
PIMPLE: iteration 3
smoothSolver:  Solving for alpha.water, Initial residual = 0.000351253, Final residual = 1.20439e-09, No Iterations 2
Phase-1 volume fraction = 0.5  Min(alpha.water) = 2.16533e-111  Max(alpha.water) = 1.00024
MULES: Correcting alpha.water
MULES: Correcting alpha.water
Phase-1 volume fraction = 0.5  Min(alpha.water) = 2.16533e-111  Max(alpha.water) = 1.00024
DICPCG:  Solving for p_rgh, Initial residual = 0.00148116, Final residual = 9.76004e-08, No Iterations 18
time step continuity errors : sum local = 3.08543e-05, global = 8.14559e-06, cumulative = -0.000239294
smoothSolver:  Solving for epsilon, Initial residual = 0.0233576, Final residual = 2.99303e-08, No Iterations 6
smoothSolver:  Solving for k, Initial residual = 0.0143255, Final residual = 9.61044e-08, No Iterations 6
Particle 0 Debug:
  Vol Integrated: 0.001 (Expected: 0.001)
  Buoyancy: (0.00290117 9.61257 0.00290919)
  Viscous: (2.66202e-07 -0.000395304 2.66137e-07)
  Gravity: (0 -4.905 0)
  Total: (0.00290144 4.70717 0.00290946)
ExecutionTime = 553.82 s  ClockTime = 554 s

Courant Number mean: 0.0150846 max: 0.643012
Interface Courant Number mean: 0.0018238 max: 0.345693
deltaT = 0.0207028
--> FOAM Warning : 
    From virtual Foam::Time& Foam::Time::operator++()
    in file db/Time/Time.C at line 1258
    Increased the timePrecision from 11 to 12 to distinguish between timeNames at time 1.50315242808
Time = 1.50315242808

PIMPLE: iteration 1
smoothSolver:  Solving for alpha.water, Initial residual = 0.000383286, Final residual = 2.21943e-09, No Iterations 2
Phase-1 volume fraction = 0.5  Min(alpha.water) = 2.47852e-111  Max(alpha.water) = 1.00025
MULES: Correcting alpha.water
MULES: Correcting alpha.water
Phase-1 volume fraction = 0.5  Min(alpha.water) = -1.22793e-10  Max(alpha.water) = 1.00025
DICPCG:  Solving for p_rgh, Initial residual = 0.0012604, Final residual = 9.87266e-08, No Iterations 51
time step continuity errors : sum local = 4.12945e-05, global = -1.1202e-05, cumulative = -0.000250496
PIMPLE: iteration 2
smoothSolver:  Solving for alpha.water, Initial residual = 0.000408039, Final residual = 8.49023e-11, No Iterations 3
Phase-1 volume fraction = 0.5  Min(alpha.water) = 0  Max(alpha.water) = 1.00028
MULES: Correcting alpha.water
MULES: Correcting alpha.water
Phase-1 volume fraction = 0.5  Min(alpha.water) = 0  Max(alpha.water) = 1.00028
DICPCG:  Solving for p_rgh, Initial residual = 0.000726531, Final residual = 9.51693e-08, No Iterations 21
time step continuity errors : sum local = 3.9299e-05, global = -1.08209e-05, cumulative = -0.000261317
PIMPLE: iteration 3
smoothSolver:  Solving for alpha.water, Initial residual = 0.000423328, Final residual = 7.69239e-11, No Iterations 3
Phase-1 volume fraction = 0.5  Min(alpha.water) = 0  Max(alpha.water) = 1.00024
MULES: Correcting alpha.water
MULES: Correcting alpha.water
Phase-1 volume fraction = 0.5  Min(alpha.water) = 0  Max(alpha.water) = 1.00024
DICPCG:  Solving for p_rgh, Initial residual = 0.00058813, Final residual = 9.95203e-08, No Iterations 12
time step continuity errors : sum local = 4.10681e-05, global = -9.07584e-06, cumulative = -0.000270393
smoothSolver:  Solving for epsilon, Initial residual = 0.0458554, Final residual = 2.40479e-08, No Iterations 9
smoothSolver:  Solving for k, Initial residual = 0.0253374, Final residual = 2.69764e-08, No Iterations 10
Particle 0 Debug:
  Vol Integrated: 0.001 (Expected: 0.001)
  Buoyancy: (0.0120523 8.25517 0.0120542)
  Viscous: (-1.08226e-05 -0.000671304 -1.08259e-05)
  Gravity: (0 -4.905 0)
  Total: (0.0120415 3.3495 0.0120434)
ExecutionTime = 560.05 s  ClockTime = 560 s

Courant Number mean: 0.021121 max: 1.12496
Interface Courant Number mean: 0.00267354 max: 0.641192
deltaT = 0.0184031
Time = 1.52155555617

PIMPLE: iteration 1
smoothSolver:  Solving for alpha.water, Initial residual = 0.000427744, Final residual = 7.1883e-09, No Iterations 2
Phase-1 volume fraction = 0.5  Min(alpha.water) = 0  Max(alpha.water) = 1.00024
MULES: Correcting alpha.water
MULES: Correcting alpha.water
Phase-1 volume fraction = 0.5  Min(alpha.water) = -9.32321e-11  Max(alpha.water) = 1.00024
DICPCG:  Solving for p_rgh, Initial residual = 0.00128742, Final residual = 8.80472e-08, No Iterations 55
time step continuity errors : sum local = 2.89158e-05, global = -3.99483e-06, cumulative = -0.000274387
PIMPLE: iteration 2
smoothSolver:  Solving for alpha.water, Initial residual = 0.000366351, Final residual = 1.10478e-10, No Iterations 3
Phase-1 volume fraction = 0.5  Min(alpha.water) = 0  Max(alpha.water) = 1.00025
MULES: Correcting alpha.water
MULES: Correcting alpha.water
Phase-1 volume fraction = 0.5  Min(alpha.water) = 0  Max(alpha.water) = 1.00025
DICPCG:  Solving for p_rgh, Initial residual = 0.000557669, Final residual = 9.99203e-08, No Iterations 39
time step continuity errors : sum local = 3.29411e-05, global = -3.47694e-06, cumulative = -0.000277864
PIMPLE: iteration 3
smoothSolver:  Solving for alpha.water, Initial residual = 0.000338377, Final residual = 9.70326e-11, No Iterations 3
Phase-1 volume fraction = 0.5  Min(alpha.water) = 0  Max(alpha.water) = 1.00026
MULES: Correcting alpha.water
MULES: Correcting alpha.water
Phase-1 volume fraction = 0.5  Min(alpha.water) = 0  Max(alpha.water) = 1.00026
DICPCG:  Solving for p_rgh, Initial residual = 0.000371221, Final residual = 9.0086e-08, No Iterations 14
time step continuity errors : sum local = 2.96676e-05, global = 4.91596e-07, cumulative = -0.000277373
smoothSolver:  Solving for epsilon, Initial residual = 0.0656317, Final residual = 3.85059e-08, No Iterations 9
smoothSolver:  Solving for k, Initial residual = 0.0358424, Final residual = 3.50863e-08, No Iterations 10
Particle 0 Debug:
  Vol Integrated: 0.001 (Expected: 0.001)
  Buoyancy: (0.00462998 6.06657 0.00463364)
  Viscous: (-2.10152e-06 -0.000717409 -2.10225e-06)
  Gravity: (0 -4.905 0)
  Total: (0.00462788 1.16085 0.00463154)
ExecutionTime = 567.34 s  ClockTime = 568 s

Courant Number mean: 0.0273824 max: 1.19701
Interface Courant Number mean: 0.00236112 max: 0.7036
deltaT = 0.0153743
Time = 1.53692981957

PIMPLE: iteration 1
smoothSolver:  Solving for alpha.water, Initial residual = 0.000338849, Final residual = 4.11016e-09, No Iterations 2
Phase-1 volume fraction = 0.5  Min(alpha.water) = 0  Max(alpha.water) = 1.00026
MULES: Correcting alpha.water
MULES: Correcting alpha.water
Phase-1 volume fraction = 0.5  Min(alpha.water) = 0  Max(alpha.water) = 1.00026
DICPCG:  Solving for p_rgh, Initial residual = 0.00113588, Final residual = 9.93296e-08, No Iterations 46
time step continuity errors : sum local = 2.33099e-05, global = -6.09895e-06, cumulative = -0.000283472
PIMPLE: iteration 2
smoothSolver:  Solving for alpha.water, Initial residual = 0.000299064, Final residual = 9.54807e-09, No Iterations 2
Phase-1 volume fraction = 0.5  Min(alpha.water) = 0  Max(alpha.water) = 1.00026
MULES: Correcting alpha.water
MULES: Correcting alpha.water
Phase-1 volume fraction = 0.5  Min(alpha.water) = 0  Max(alpha.water) = 1.00026
DICPCG:  Solving for p_rgh, Initial residual = 0.000424602, Final residual = 9.38856e-08, No Iterations 39
time step continuity errors : sum local = 2.18535e-05, global = -2.14641e-06, cumulative = -0.000285618
PIMPLE: iteration 3
smoothSolver:  Solving for alpha.water, Initial residual = 0.000269288, Final residual = 8.11487e-09, No Iterations 2
Phase-1 volume fraction = 0.5  Min(alpha.water) = 0  Max(alpha.water) = 1.00026
MULES: Correcting alpha.water
MULES: Correcting alpha.water
Phase-1 volume fraction = 0.5  Min(alpha.water) = 0  Max(alpha.water) = 1.00026
DICPCG:  Solving for p_rgh, Initial residual = 0.000231183, Final residual = 9.34872e-08, No Iterations 13
time step continuity errors : sum local = 2.17947e-05, global = -2.74356e-07, cumulative = -0.000285892
smoothSolver:  Solving for epsilon, Initial residual = 0.0507606, Final residual = 3.92931e-08, No Iterations 8
smoothSolver:  Solving for k, Initial residual = 0.0292355, Final residual = 2.83541e-08, No Iterations 9
Particle 0 Debug:
  Vol Integrated: 0.001 (Expected: 0.001)
  Buoyancy: (-0.0100051 4.76851 -0.0100105)
  Viscous: (1.15397e-06 -0.000555947 1.15446e-06)
  Gravity: (0 -4.905 0)
  Total: (-0.010004 -0.137042 -0.0100093)
ExecutionTime = 573.6 s  ClockTime = 574 s

Courant Number mean: 0.0265985 max: 0.91216
Interface Courant Number mean: 0.00180332 max: 0.660259
deltaT = 0.0168548
--> FOAM Warning : 
    From virtual Foam::Time& Foam::Time::operator++()
    in file db/Time/Time.C at line 1258
    Increased the timePrecision from 12 to 13 to distinguish between timeNames at time 1.553784609827
Time = 1.553784609827

PIMPLE: iteration 1
smoothSolver:  Solving for alpha.water, Initial residual = 0.000336192, Final residual = 4.45915e-11, No Iterations 3
Phase-1 volume fraction = 0.5  Min(alpha.water) = 0  Max(alpha.water) = 1.00025
MULES: Correcting alpha.water
MULES: Correcting alpha.water
Phase-1 volume fraction = 0.5  Min(alpha.water) = 0  Max(alpha.water) = 1.00025
DICPCG:  Solving for p_rgh, Initial residual = 0.00109892, Final residual = 8.59913e-08, No Iterations 43
time step continuity errors : sum local = 2.40446e-05, global = -1.19965e-06, cumulative = -0.000287092
PIMPLE: iteration 2
smoothSolver:  Solving for alpha.water, Initial residual = 0.000283269, Final residual = 8.08226e-11, No Iterations 3
Phase-1 volume fraction = 0.5  Min(alpha.water) = 0  Max(alpha.water) = 1.00027
MULES: Correcting alpha.water
MULES: Correcting alpha.water
Phase-1 volume fraction = 0.5  Min(alpha.water) = 0  Max(alpha.water) = 1.00027
DICPCG:  Solving for p_rgh, Initial residual = 0.000435549, Final residual = 9.59294e-08, No Iterations 40
time step continuity errors : sum local = 2.68216e-05, global = -1.33253e-06, cumulative = -0.000288425
PIMPLE: iteration 3
smoothSolver:  Solving for alpha.water, Initial residual = 0.000260925, Final residual = 9.04601e-09, No Iterations 2
Phase-1 volume fraction = 0.5  Min(alpha.water) = 0  Max(alpha.water) = 1.00025
MULES: Correcting alpha.water
MULES: Correcting alpha.water
Phase-1 volume fraction = 0.5  Min(alpha.water) = 0  Max(alpha.water) = 1.00025
DICPCG:  Solving for p_rgh, Initial residual = 0.000258096, Final residual = 9.34211e-08, No Iterations 10
time step continuity errors : sum local = 2.61419e-05, global = -6.84378e-07, cumulative = -0.000289109
smoothSolver:  Solving for epsilon, Initial residual = 0.0462876, Final residual = 1.62571e-08, No Iterations 8
smoothSolver:  Solving for k, Initial residual = 0.027771, Final residual = 6.24859e-08, No Iterations 8
Particle 0 Debug:
  Vol Integrated: 0.001 (Expected: 0.001)
  Buoyancy: (-0.0101062 4.22567 -0.0101124)
  Viscous: (7.08213e-06 -0.000496654 7.07727e-06)
  Gravity: (0 -4.905 0)
  Total: (-0.0100992 -0.679824 -0.0101054)
ExecutionTime = 579.57 s  ClockTime = 580 s

Courant Number mean: 0.0300091 max: 0.875328
Interface Courant Number mean: 0.00173136 max: 0.824877
deltaT = 0.0187803
Time = 1.572564940631

PIMPLE: iteration 1
smoothSolver:  Solving for alpha.water, Initial residual = 0.000326233, Final residual = 8.73907e-11, No Iterations 3
Phase-1 volume fraction = 0.5  Min(alpha.water) = 0  Max(alpha.water) = 1.00025
MULES: Correcting alpha.water
MULES: Correcting alpha.water
Phase-1 volume fraction = 0.5  Min(alpha.water) = 0  Max(alpha.water) = 1.00025
DICPCG:  Solving for p_rgh, Initial residual = 0.00101986, Final residual = 9.74311e-08, No Iterations 28
time step continuity errors : sum local = 3.36583e-05, global = 6.52703e-07, cumulative = -0.000288456
PIMPLE: iteration 2
smoothSolver:  Solving for alpha.water, Initial residual = 0.000275906, Final residual = 9.32508e-09, No Iterations 2
Phase-1 volume fraction = 0.5  Min(alpha.water) = 0  Max(alpha.water) = 1.00023
MULES: Correcting alpha.water
MULES: Correcting alpha.water
Phase-1 volume fraction = 0.5  Min(alpha.water) = 0  Max(alpha.water) = 1.00023
DICPCG:  Solving for p_rgh, Initial residual = 0.00042935, Final residual = 9.36322e-08, No Iterations 40
time step continuity errors : sum local = 3.26516e-05, global = -2.09864e-06, cumulative = -0.000290555
PIMPLE: iteration 3
smoothSolver:  Solving for alpha.water, Initial residual = 0.000249321, Final residual = 7.97063e-09, No Iterations 2
Phase-1 volume fraction = 0.5  Min(alpha.water) = 0  Max(alpha.water) = 1.00023
MULES: Correcting alpha.water
MULES: Correcting alpha.water
Phase-1 volume fraction = 0.5  Min(alpha.water) = 0  Max(alpha.water) = 1.00023
DICPCG:  Solving for p_rgh, Initial residual = 0.000271651, Final residual = 9.29073e-08, No Iterations 11
time step continuity errors : sum local = 3.20887e-05, global = -1.60272e-06, cumulative = -0.000292158
smoothSolver:  Solving for epsilon, Initial residual = 0.0429675, Final residual = 4.72616e-08, No Iterations 8
smoothSolver:  Solving for k, Initial residual = 0.026515, Final residual = 4.70672e-08, No Iterations 9
Particle 0 Debug:
  Vol Integrated: 0.001 (Expected: 0.001)
  Buoyancy: (-0.0125724 4.06938 -0.0125795)
  Viscous: (3.46013e-06 -0.000383778 3.46027e-06)
  Gravity: (0 -4.905 0)
  Total: (-0.012569 -0.836007 -0.012576)
ExecutionTime = 584.94 s  ClockTime = 585 s

Courant Number mean: 0.0332797 max: 1.08498
Interface Courant Number mean: 0.00160825 max: 0.759372
deltaT = 0.0173094
Time = 1.589874312124

PIMPLE: iteration 1
smoothSolver:  Solving for alpha.water, Initial residual = 0.000257009, Final residual = 8.77918e-09, No Iterations 2
Phase-1 volume fraction = 0.5  Min(alpha.water) = 0  Max(alpha.water) = 1.00023
MULES: Correcting alpha.water
MULES: Correcting alpha.water
Phase-1 volume fraction = 0.5  Min(alpha.water) = 0  Max(alpha.water) = 1.00023
DICPCG:  Solving for p_rgh, Initial residual = 0.000843167, Final residual = 9.57253e-08, No Iterations 28
time step continuity errors : sum local = 2.81796e-05, global = 8.1453e-07, cumulative = -0.000291343
PIMPLE: iteration 2
smoothSolver:  Solving for alpha.water, Initial residual = 0.000212803, Final residual = 3.86386e-09, No Iterations 2
Phase-1 volume fraction = 0.5  Min(alpha.water) = 0  Max(alpha.water) = 1.00023
MULES: Correcting alpha.water
MULES: Correcting alpha.water
Phase-1 volume fraction = 0.5  Min(alpha.water) = 0  Max(alpha.water) = 1.00023
DICPCG:  Solving for p_rgh, Initial residual = 0.000338724, Final residual = 9.28892e-08, No Iterations 27
time step continuity errors : sum local = 2.76772e-05, global = 4.53991e-06, cumulative = -0.000286803
PIMPLE: iteration 3
smoothSolver:  Solving for alpha.water, Initial residual = 0.000190536, Final residual = 3.39116e-09, No Iterations 2
Phase-1 volume fraction = 0.5  Min(alpha.water) = 2.20309e-111  Max(alpha.water) = 1.00023
MULES: Correcting alpha.water
MULES: Correcting alpha.water
Phase-1 volume fraction = 0.5  Min(alpha.water) = 2.20309e-111  Max(alpha.water) = 1.00023
DICPCG:  Solving for p_rgh, Initial residual = 0.000131131, Final residual = 9.71656e-08, No Iterations 9
time step continuity errors : sum local = 2.89693e-05, global = 4.69138e-06, cumulative = -0.000282112
smoothSolver:  Solving for epsilon, Initial residual = 0.0346233, Final residual = 3.05481e-08, No Iterations 8
smoothSolver:  Solving for k, Initial residual = 0.0215711, Final residual = 3e-08, No Iterations 9
