/*---------------------------------------------------------------------------*\
| =========                 |                                                 |
| \\      /  F ield         | OpenFOAM: The Open Source CFD Toolbox           |
|  \\    /   O peration     | Version:  2312                                  |
|   \\  /    A nd           | Website:  www.openfoam.com                      |
|    \\/     M anipulation  |                                                 |
\*---------------------------------------------------------------------------*/
Build  : v2312 OPENFOAM=2312 version=v2312
Arch   : "LSB;label=32;scalar=64"
Exec   : fineDEMfoam
Date   : Nov 24 2025
Time   : 18:22:56
Host   : SANJEEV
PID    : 1050359
I/O    : uncollated
Case   : /usr/lib/openfoam/openfoam2312/bashyal/Applications/srcTestMain/cfd_dem/freeSedimentation
nProcs : 1
trapFpe: Floating point exception trapping enabled (FOAM_SIGFPE).
fileModificationChecking : Monitoring run-time modified files using timeStampMaster (fileModificationSkew 5, maxFileModificationPolls 20)
allowSystemOperations : Allowing user-supplied system call operations

// * * * * * * * * * * * * * * * * * * * * * * * * * * * * * * * * * * * * * //
Create time

Create mesh for time = 0


PIMPLE: Operating solver in PISO mode

Reading field p_rgh

Reading field U

Reading/calculating face flux field phi

Reading transportProperties

Selecting incompressible transport model Newtonian
Selecting incompressible transport model Newtonian
Selecting turbulence model type RAS
Selecting RAS turbulence model kEpsilon
RAS
{
    model           kEpsilon;
    turbulence      on;
    printCoeffs     on;
    Cmu             0.09;
    C1              1.44;
    C2              1.92;
    C3              0;
    sigmak          1;
    sigmaEps        1.3;
}


Reading g

Reading hRef
Calculating field g.h

No MRF models present

No finite volume options present
Reading field epsilon

Reading field Usolid

Reading field lambda

DICPCG:  Solving for pcorr, Initial residual = 0, Final residual = 0, No Iterations 0
time step continuity errors : sum local = 0, global = 0, cumulative = 0
Courant Number mean: 0 max: 0
Initializing DEM...

Starting time loop

Courant Number mean: 0 max: 0
Interface Courant Number mean: 0 max: 0
deltaT = 0.0006
Time = 0.0006

PIMPLE: iteration 1
smoothSolver:  Solving for alpha.water, Initial residual = 0, Final residual = 0, No Iterations 0
Phase-1 volume fraction = 1  Min(alpha.water) = 1  Max(alpha.water) = 1
MULES: Correcting alpha.water
MULES: Correcting alpha.water
Phase-1 volume fraction = 1  Min(alpha.water) = 1  Max(alpha.water) = 1
DICPCG:  Solving for p_rgh, Initial residual = 1.12764e-13, Final residual = 1.12764e-13, No Iterations 0
time step continuity errors : sum local = 1.69146e-33, global = 2.72027e-50, cumulative = 2.72027e-50
DICPCG:  Solving for p_rgh, Initial residual = 1.13038e-13, Final residual = 1.13038e-13, No Iterations 0
time step continuity errors : sum local = 1.69557e-33, global = -4.20479e-39, cumulative = -4.20479e-39
DICPCG:  Solving for p_rgh, Initial residual = 1.13046e-13, Final residual = 1.13046e-13, No Iterations 0
time step continuity errors : sum local = 1.69568e-33, global = -4.25319e-39, cumulative = -8.45799e-39
smoothSolver:  Solving for epsilon, Initial residual = 0.00132761, Final residual = 2.22787e-11, No Iterations 2
smoothSolver:  Solving for k, Initial residual = 1, Final residual = 5.26881e-08, No Iterations 2
Particle 0 Debug:
  Vol Integrated: 2.7e-08 (Expected: 2.7e-08)
  Buoyancy: (0 0.00026487 0)
  Viscous: (0 0 0)
  Gravity: (0 -0.00052974 0)
  Total: (0 -0.00026487 0)
ExecutionTime = 18.74 s  ClockTime = 19 s

Courant Number mean: 9.65939e-34 max: 2.78275e-31
Interface Courant Number mean: 0 max: 0
deltaT = 0.00072
Time = 0.00132

PIMPLE: iteration 1
smoothSolver:  Solving for alpha.water, Initial residual = 0, Final residual = 0, No Iterations 0
Phase-1 volume fraction = 1  Min(alpha.water) = 1  Max(alpha.water) = 1
MULES: Correcting alpha.water
MULES: Correcting alpha.water
Phase-1 volume fraction = 1  Min(alpha.water) = 1  Max(alpha.water) = 1
DICPCG:  Solving for p_rgh, Initial residual = 1, Final residual = 0.0379717, No Iterations 564
time step continuity errors : sum local = 1.06661e-08, global = 1.45974e-11, cumulative = 1.45974e-11
DICPCG:  Solving for p_rgh, Initial residual = 0.00540707, Final residual = 0.000264949, No Iterations 84
time step continuity errors : sum local = 9.5758e-10, global = 7.20117e-11, cumulative = 8.66091e-11
DICPCG:  Solving for p_rgh, Initial residual = 0.000324038, Final residual = 9.55774e-08, No Iterations 574
time step continuity errors : sum local = 3.43868e-13, global = 2.49299e-16, cumulative = 8.66093e-11
smoothSolver:  Solving for epsilon, Initial residual = 0.000926959, Final residual = 2.86315e-11, No Iterations 2
smoothSolver:  Solving for k, Initial residual = 0.433781, Final residual = 1.91119e-08, No Iterations 2
Particle 0 Debug:
  Vol Integrated: 2.7e-08 (Expected: 2.7e-08)
  Buoyancy: (1.17763e-12 0.000335183 1.16867e-12)
  Viscous: (8.88608e-17 4.63149e-08 8.83465e-17)
  Gravity: (0 -0.00052974 0)
  Total: (1.17772e-12 -0.000194511 1.16875e-12)
ExecutionTime = 49.78 s  ClockTime = 50 s

Courant Number mean: 3.08422e-06 max: 0.00202708
Interface Courant Number mean: 0 max: 0
deltaT = 0.000864
Time = 0.002184

PIMPLE: iteration 1
smoothSolver:  Solving for alpha.water, Initial residual = 1, Final residual = 0.000199862, No Iterations 1000
Phase-1 volume fraction = 1  Min(alpha.water) = 1  Max(alpha.water) = 1
MULES: Correcting alpha.water
MULES: Correcting alpha.water
Phase-1 volume fraction = 1  Min(alpha.water) = 1  Max(alpha.water) = 1
DICPCG:  Solving for p_rgh, Initial residual = 0.02477, Final residual = 0.00121675, No Iterations 22
time step continuity errors : sum local = 6.21108e-09, global = 1.4407e-11, cumulative = 1.01016e-10
DICPCG:  Solving for p_rgh, Initial residual = 0.00392135, Final residual = 0.000172499, No Iterations 563
time step continuity errors : sum local = 8.91161e-10, global = -3.84421e-13, cumulative = 1.00632e-10
DICPCG:  Solving for p_rgh, Initial residual = 0.000235629, Final residual = 9.03922e-08, No Iterations 574
time step continuity errors : sum local = 4.42254e-13, global = 8.04616e-16, cumulative = 1.00633e-10
smoothSolver:  Solving for epsilon, Initial residual = 0.00107175, Final residual = 6.38056e-11, No Iterations 2
smoothSolver:  Solving for k, Initial residual = 0.262002, Final residual = 2.31744e-08, No Iterations 2
Particle 0 Debug:
  Vol Integrated: 2.7e-08 (Expected: 2.7e-08)
  Buoyancy: (2.36464e-13 0.000330685 2.38696e-13)
  Viscous: (-1.30874e-16 7.63654e-08 -1.29437e-16)
  Gravity: (0 -0.00052974 0)
  Total: (2.36333e-13 -0.000198978 2.38567e-13)
ExecutionTime = 97.41 s  ClockTime = 98 s

Courant Number mean: 7.79877e-06 max: 0.00469018
Interface Courant Number mean: 0 max: 0
deltaT = 0.0010368
Time = 0.0032208

PIMPLE: iteration 1
smoothSolver:  Solving for alpha.water, Initial residual = 0.412349, Final residual = 6.83147e-05, No Iterations 1000
Phase-1 volume fraction = 1  Min(alpha.water) = 1  Max(alpha.water) = 1
MULES: Correcting alpha.water
MULES: Correcting alpha.water
Phase-1 volume fraction = 1  Min(alpha.water) = 1  Max(alpha.water) = 1
DICPCG:  Solving for p_rgh, Initial residual = 0.018677, Final residual = 0.000918539, No Iterations 104
time step continuity errors : sum local = 6.50455e-09, global = -4.68481e-10, cumulative = -3.67848e-10
DICPCG:  Solving for p_rgh, Initial residual = 0.00474773, Final residual = 0.000232328, No Iterations 519
time step continuity errors : sum local = 1.67736e-09, global = 1.6e-12, cumulative = -3.66248e-10
DICPCG:  Solving for p_rgh, Initial residual = 0.000291468, Final residual = 9.78226e-08, No Iterations 572
time step continuity errors : sum local = 7.389e-13, global = 8.55169e-16, cumulative = -3.66247e-10
smoothSolver:  Solving for epsilon, Initial residual = 0.00123764, Final residual = 1.41052e-10, No Iterations 2
smoothSolver:  Solving for k, Initial residual = 0.197743, Final residual = 3.52357e-08, No Iterations 2
Particle 0 Debug:
  Vol Integrated: 2.7e-08 (Expected: 2.7e-08)
  Buoyancy: (-1.6621e-13 0.000335018 -1.66787e-13)
  Viscous: (-1.82161e-16 1.07511e-07 -1.815e-16)
  Gravity: (0 -0.00052974 0)
  Total: (-1.66392e-13 -0.000194615 -1.66968e-13)
ExecutionTime = 144.85 s  ClockTime = 145 s

Courant Number mean: 1.55825e-05 max: 0.00894805
Interface Courant Number mean: 0 max: 0
deltaT = 0.00124416
Time = 0.00446496

PIMPLE: iteration 1
smoothSolver:  Solving for alpha.water, Initial residual = 0.487915, Final residual = 3.79651e-05, No Iterations 1000
Phase-1 volume fraction = 1  Min(alpha.water) = 1  Max(alpha.water) = 1
MULES: Correcting alpha.water
MULES: Correcting alpha.water
Phase-1 volume fraction = 1  Min(alpha.water) = 1  Max(alpha.water) = 1
DICPCG:  Solving for p_rgh, Initial residual = 0.0140024, Final residual = 0.000687244, No Iterations 30
time step continuity errors : sum local = 7.40768e-09, global = -1.23813e-09, cumulative = -1.60437e-09
DICPCG:  Solving for p_rgh, Initial residual = 0.00523633, Final residual = 0.000247684, No Iterations 40
time step continuity errors : sum local = 2.69351e-09, global = -4.63656e-10, cumulative = -2.06803e-09
DICPCG:  Solving for p_rgh, Initial residual = 0.000342922, Final residual = 8.64731e-08, No Iterations 573
time step continuity errors : sum local = 9.38121e-13, global = 1.49718e-16, cumulative = -2.06803e-09
smoothSolver:  Solving for epsilon, Initial residual = 0.00143234, Final residual = 3.10071e-10, No Iterations 2
smoothSolver:  Solving for k, Initial residual = 0.164935, Final residual = 5.98056e-08, No Iterations 2
Particle 0 Debug:
  Vol Integrated: 2.7e-08 (Expected: 2.7e-08)
  Buoyancy: (8.41101e-13 0.000336832 8.41131e-13)
  Viscous: (3.52652e-17 1.40958e-07 3.59194e-17)
  Gravity: (0 -0.00052974 0)
  Total: (8.41136e-13 -0.000192767 8.41167e-13)
ExecutionTime = 183.99 s  ClockTime = 184 s

Courant Number mean: 2.77678e-05 max: 0.0155608
Interface Courant Number mean: 0 max: 0
deltaT = 0.00149299
Time = 0.00595795

PIMPLE: iteration 1
smoothSolver:  Solving for alpha.water, Initial residual = 0.533951, Final residual = 3.64457e-05, No Iterations 1000
Phase-1 volume fraction = 1  Min(alpha.water) = 1  Max(alpha.water) = 1
MULES: Correcting alpha.water
MULES: Correcting alpha.water
Phase-1 volume fraction = 1  Min(alpha.water) = 1  Max(alpha.water) = 1
DICPCG:  Solving for p_rgh, Initial residual = 0.0178014, Final residual = 0.000801999, No Iterations 29
time step continuity errors : sum local = 1.25147e-08, global = -3.90606e-10, cumulative = -2.45863e-09
DICPCG:  Solving for p_rgh, Initial residual = 0.00639531, Final residual = 0.000313072, No Iterations 35
time step continuity errors : sum local = 4.92102e-09, global = 1.76536e-11, cumulative = -2.44098e-09
DICPCG:  Solving for p_rgh, Initial residual = 0.000457512, Final residual = 8.73525e-08, No Iterations 573
time step continuity errors : sum local = 1.36879e-12, global = -1.44534e-15, cumulative = -2.44098e-09
smoothSolver:  Solving for epsilon, Initial residual = 0.00165248, Final residual = 6.81589e-10, No Iterations 2
smoothSolver:  Solving for k, Initial residual = 0.14571, Final residual = 1.721e-10, No Iterations 3
Particle 0 Debug:
  Vol Integrated: 2.6995e-08 (Expected: 2.7e-08)
  Buoyancy: (-1.42317e-12 0.000338625 -1.4231e-12)
  Viscous: (6.78356e-17 1.83986e-07 6.84018e-17)
  Gravity: (0 -0.00052974 0)
  Total: (-1.42311e-12 -0.000190931 -1.42303e-12)
ExecutionTime = 223.34 s  ClockTime = 224 s

Courant Number mean: 4.63641e-05 max: 0.0254539
Interface Courant Number mean: 0 max: 0
deltaT = 0.00179159
Time = 0.00774954

PIMPLE: iteration 1
smoothSolver:  Solving for alpha.water, Initial residual = 0.456536, Final residual = 2.33439e-05, No Iterations 1000
Phase-1 volume fraction = 1  Min(alpha.water) = 1  Max(alpha.water) = 1
MULES: Correcting alpha.water
MULES: Correcting alpha.water
Phase-1 volume fraction = 1  Min(alpha.water) = 1  Max(alpha.water) = 1
DICPCG:  Solving for p_rgh, Initial residual = 0.0230542, Final residual = 0.00112935, No Iterations 9
time step continuity errors : sum local = 2.52051e-08, global = 1.13255e-12, cumulative = -2.43985e-09
DICPCG:  Solving for p_rgh, Initial residual = 0.00790619, Final residual = 0.000370751, No Iterations 30
time step continuity errors : sum local = 8.28662e-09, global = 1.46581e-09, cumulative = -9.74037e-10
DICPCG:  Solving for p_rgh, Initial residual = 0.000598935, Final residual = 9.34484e-08, No Iterations 576
time step continuity errors : sum local = 2.08022e-12, global = 8.15527e-16, cumulative = -9.74036e-10
smoothSolver:  Solving for epsilon, Initial residual = 0.00190092, Final residual = 1.51698e-09, No Iterations 2
smoothSolver:  Solving for k, Initial residual = 0.133772, Final residual = 5.25513e-10, No Iterations 3
Particle 0 Debug:
  Vol Integrated: 2.69989e-08 (Expected: 2.7e-08)
  Buoyancy: (1.08812e-12 0.000336605 1.08821e-12)
  Viscous: (1.27723e-16 2.47715e-07 1.28111e-16)
  Gravity: (0 -0.00052974 0)
  Total: (1.08825e-12 -0.000192888 1.08834e-12)
ExecutionTime = 263.61 s  ClockTime = 264 s

Courant Number mean: 7.39226e-05 max: 0.0400717
Interface Courant Number mean: 0 max: 0
deltaT = 0.00214991
Time = 0.00989945

PIMPLE: iteration 1
smoothSolver:  Solving for alpha.water, Initial residual = 0.422623, Final residual = 1.05197e-05, No Iterations 1000
Phase-1 volume fraction = 1  Min(alpha.water) = 1  Max(alpha.water) = 1
MULES: Correcting alpha.water
MULES: Correcting alpha.water
Phase-1 volume fraction = 1  Min(alpha.water) = 1  Max(alpha.water) = 1
DICPCG:  Solving for p_rgh, Initial residual = 0.0162878, Final residual = 0.000784769, No Iterations 87
time step continuity errors : sum local = 2.45844e-08, global = -1.94485e-09, cumulative = -2.91888e-09
DICPCG:  Solving for p_rgh, Initial residual = 0.0100858, Final residual = 0.000503076, No Iterations 74
time step continuity errors : sum local = 1.58867e-08, global = -2.80757e-10, cumulative = -3.19964e-09
DICPCG:  Solving for p_rgh, Initial residual = 0.00087456, Final residual = 7.59074e-08, No Iterations 577
time step continuity errors : sum local = 2.38486e-12, global = -7.05689e-17, cumulative = -3.19964e-09
smoothSolver:  Solving for epsilon, Initial residual = 0.00218272, Final residual = 3.53933e-09, No Iterations 2
smoothSolver:  Solving for k, Initial residual = 0.126518, Final residual = 1.96786e-09, No Iterations 3
Particle 0 Debug:
  Vol Integrated: 2.7e-08 (Expected: 2.7e-08)
  Buoyancy: (-1.54221e-11 0.000338297 -1.54262e-11)
  Viscous: (-1.89684e-15 3.28234e-07 -1.89716e-15)
  Gravity: (0 -0.00052974 0)
  Total: (-1.5424e-11 -0.000191115 -1.54281e-11)
ExecutionTime = 305.72 s  ClockTime = 306 s

Courant Number mean: 0.000115458 max: 0.0618159
Interface Courant Number mean: 0 max: 0
deltaT = 0.00257989
Time = 0.0124793

PIMPLE: iteration 1
smoothSolver:  Solving for alpha.water, Initial residual = 0.371819, Final residual = 9.133e-06, No Iterations 1000
Phase-1 volume fraction = 1  Min(alpha.water) = 1  Max(alpha.water) = 1
MULES: Correcting alpha.water
MULES: Correcting alpha.water
Phase-1 volume fraction = 1  Min(alpha.water) = 1  Max(alpha.water) = 1
DICPCG:  Solving for p_rgh, Initial residual = 0.0329835, Final residual = 0.00158603, No Iterations 6
time step continuity errors : sum local = 7.23179e-08, global = 3.7399e-11, cumulative = -3.16224e-09
DICPCG:  Solving for p_rgh, Initial residual = 0.0127456, Final residual = 0.00061065, No Iterations 30
time step continuity errors : sum local = 2.75025e-08, global = 5.52081e-09, cumulative = 2.35857e-09
DICPCG:  Solving for p_rgh, Initial residual = 0.00122536, Final residual = 8.15895e-08, No Iterations 578
time step continuity errors : sum local = 3.65413e-12, global = 1.43894e-16, cumulative = 2.35857e-09
smoothSolver:  Solving for epsilon, Initial residual = 0.00250651, Final residual = 9.3515e-09, No Iterations 2
smoothSolver:  Solving for k, Initial residual = 0.122794, Final residual = 9.58164e-09, No Iterations 3
Particle 0 Debug:
  Vol Integrated: 2.7e-08 (Expected: 2.7e-08)
  Buoyancy: (6.36689e-12 0.000335764 6.3682e-12)
  Viscous: (8.5535e-15 4.48676e-07 8.55613e-15)
  Gravity: (0 -0.00052974 0)
  Total: (6.37545e-12 -0.000193528 6.37675e-12)
ExecutionTime = 345.28 s  ClockTime = 346 s

Courant Number mean: 0.000174482 max: 0.0937073
Interface Courant Number mean: 0 max: 0
deltaT = 0.00309587
Time = 0.0155752

PIMPLE: iteration 1
smoothSolver:  Solving for alpha.water, Initial residual = 0.460853, Final residual = 8.25159e-06, No Iterations 1000
Phase-1 volume fraction = 1  Min(alpha.water) = 1  Max(alpha.water) = 1
MULES: Correcting alpha.water
MULES: Correcting alpha.water
Phase-1 volume fraction = 1  Min(alpha.water) = 1  Max(alpha.water) = 1
DICPCG:  Solving for p_rgh, Initial residual = 0.0274661, Final residual = 0.00137018, No Iterations 139
time step continuity errors : sum local = 8.36354e-08, global = -5.56859e-09, cumulative = -3.21002e-09
DICPCG:  Solving for p_rgh, Initial residual = 0.0180332, Final residual = 0.000870348, No Iterations 31
time step continuity errors : sum local = 5.44484e-08, global = 2.48261e-09, cumulative = -7.27402e-10
DICPCG:  Solving for p_rgh, Initial residual = 0.00200032, Final residual = 7.28164e-08, No Iterations 579
time step continuity errors : sum local = 4.52471e-12, global = -7.06094e-16, cumulative = -7.27402e-10
smoothSolver:  Solving for epsilon, Initial residual = 0.00289918, Final residual = 3.41219e-08, No Iterations 2
smoothSolver:  Solving for k, Initial residual = 0.122964, Final residual = 6.71467e-08, No Iterations 3
Particle 0 Debug:
  Vol Integrated: 2.7e-08 (Expected: 2.7e-08)
  Buoyancy: (-3.78618e-11 0.000341742 -3.78562e-11)
  Viscous: (8.15291e-15 5.78445e-07 8.15064e-15)
  Gravity: (0 -0.00052974 0)
  Total: (-3.78536e-11 -0.000187419 -3.78481e-11)
ExecutionTime = 387.09 s  ClockTime = 387 s

Courant Number mean: 0.000264323 max: 0.140941
Interface Courant Number mean: 0 max: 0
deltaT = 0.00371504
Time = 0.0192903

PIMPLE: iteration 1
smoothSolver:  Solving for alpha.water, Initial residual = 0.425187, Final residual = 6.67254e-06, No Iterations 1000
Phase-1 volume fraction = 1  Min(alpha.water) = 1  Max(alpha.water) = 1
MULES: Correcting alpha.water
MULES: Correcting alpha.water
Phase-1 volume fraction = 1  Min(alpha.water) = 1  Max(alpha.water) = 1
DICPCG:  Solving for p_rgh, Initial residual = 0.0476752, Final residual = 0.0022925, No Iterations 32
time step continuity errors : sum local = 2.18993e-07, global = -4.78355e-08, cumulative = -4.85629e-08
DICPCG:  Solving for p_rgh, Initial residual = 0.023934, Final residual = 0.00117469, No Iterations 194
time step continuity errors : sum local = 1.15144e-07, global = -6.70018e-09, cumulative = -5.52631e-08
DICPCG:  Solving for p_rgh, Initial residual = 0.00333663, Final residual = 8.97395e-08, No Iterations 579
time step continuity errors : sum local = 8.9122e-12, global = -4.57649e-15, cumulative = -5.52631e-08
smoothSolver:  Solving for epsilon, Initial residual = 0.00343408, Final residual = 3.96523e-09, No Iterations 3
smoothSolver:  Solving for k, Initial residual = 0.128337, Final residual = 1.84757e-08, No Iterations 4
Particle 0 Debug:
  Vol Integrated: 2.7e-08 (Expected: 2.7e-08)
  Buoyancy: (5.33169e-12 0.000351925 5.18893e-12)
  Viscous: (5.28775e-14 6.57608e-07 5.29085e-14)
  Gravity: (0 -0.00052974 0)
  Total: (5.38457e-12 -0.000177157 5.24184e-12)
ExecutionTime = 431.49 s  ClockTime = 432 s

Courant Number mean: 0.000403818 max: 0.209517
Interface Courant Number mean: 0 max: 0
deltaT = 0.00445805
Time = 0.0237483

PIMPLE: iteration 1
smoothSolver:  Solving for alpha.water, Initial residual = 0.456072, Final residual = 2.72171e-06, No Iterations 1000
Phase-1 volume fraction = 1  Min(alpha.water) = 1  Max(alpha.water) = 1
MULES: Correcting alpha.water
MULES: Correcting alpha.water
Phase-1 volume fraction = 1  Min(alpha.water) = 1  Max(alpha.water) = 1
DICPCG:  Solving for p_rgh, Initial residual = 0.0415055, Final residual = 0.00199252, No Iterations 11
time step continuity errors : sum local = 2.95222e-07, global = 1.39016e-09, cumulative = -5.3873e-08
DICPCG:  Solving for p_rgh, Initial residual = 0.0272394, Final residual = 0.00131946, No Iterations 11
time step continuity errors : sum local = 1.95347e-07, global = 1.67362e-09, cumulative = -5.21994e-08
DICPCG:  Solving for p_rgh, Initial residual = 0.00475402, Final residual = 9.80406e-08, No Iterations 581
time step continuity errors : sum local = 1.43721e-11, global = -7.2864e-15, cumulative = -5.21994e-08
smoothSolver:  Solving for epsilon, Initial residual = 0.00433459, Final residual = 7.67971e-08, No Iterations 3
smoothSolver:  Solving for k, Initial residual = 0.141495, Final residual = 2.37211e-08, No Iterations 5
Particle 0 Debug:
  Vol Integrated: 2.7e-08 (Expected: 2.7e-08)
  Buoyancy: (-1.04649e-10 0.000351067 -1.04606e-10)
  Viscous: (1.94198e-13 7.6765e-07 1.94363e-13)
  Gravity: (0 -0.00052974 0)
  Total: (-1.04454e-10 -0.000177905 -1.04412e-10)
ExecutionTime = 470.92 s  ClockTime = 471 s

Courant Number mean: 0.000608768 max: 0.305821
Interface Courant Number mean: 0 max: 0
deltaT = 0.00534966
Time = 0.029098

PIMPLE: iteration 1
smoothSolver:  Solving for alpha.water, Initial residual = 0.455367, Final residual = 1.89299e-06, No Iterations 1000
Phase-1 volume fraction = 1  Min(alpha.water) = 1  Max(alpha.water) = 1
MULES: Correcting alpha.water
MULES: Correcting alpha.water
Phase-1 volume fraction = 1  Min(alpha.water) = 1  Max(alpha.water) = 1
DICPCG:  Solving for p_rgh, Initial residual = 0.118128, Final residual = 0.00492602, No Iterations 32
time step continuity errors : sum local = 1.04235e-06, global = -1.89194e-07, cumulative = -2.41394e-07
DICPCG:  Solving for p_rgh, Initial residual = 0.0495975, Final residual = 0.00245721, No Iterations 417
time step continuity errors : sum local = 5.49116e-07, global = -2.42782e-08, cumulative = -2.65672e-07
DICPCG:  Solving for p_rgh, Initial residual = 0.0101627, Final residual = 8.78688e-08, No Iterations 584
time step continuity errors : sum local = 2.21556e-11, global = -1.68454e-14, cumulative = -2.65672e-07
smoothSolver:  Solving for epsilon, Initial residual = 0.00624078, Final residual = 1.04871e-08, No Iterations 5
smoothSolver:  Solving for k, Initial residual = 0.167322, Final residual = 1.08321e-08, No Iterations 7
Particle 0 Debug:
  Vol Integrated: 2.7e-08 (Expected: 2.7e-08)
  Buoyancy: (-1.08097e-10 0.000381314 -1.0731e-10)
  Viscous: (1.92822e-13 6.89195e-07 1.92386e-13)
  Gravity: (0 -0.00052974 0)
  Total: (-1.07904e-10 -0.000147736 -1.07117e-10)
ExecutionTime = 517.2 s  ClockTime = 517 s

Courant Number mean: 0.000975332 max: 0.4469
Interface Courant Number mean: 0 max: 0
deltaT = 0.00641959
Time = 0.0355176

PIMPLE: iteration 1
smoothSolver:  Solving for alpha.water, Initial residual = 0.46879, Final residual = 1.41212e-06, No Iterations 1000
Phase-1 volume fraction = 1  Min(alpha.water) = 1  Max(alpha.water) = 1
MULES: Correcting alpha.water
MULES: Correcting alpha.water
Phase-1 volume fraction = 1  Min(alpha.water) = 1  Max(alpha.water) = 1
DICPCG:  Solving for p_rgh, Initial residual = 0.0615008, Final residual = 0.0025104, No Iterations 29
time step continuity errors : sum local = 1.03365e-06, global = 1.99285e-07, cumulative = -6.63875e-08
DICPCG:  Solving for p_rgh, Initial residual = 0.0364829, Final residual = 0.00175043, No Iterations 72
time step continuity errors : sum local = 7.18273e-07, global = 7.267e-08, cumulative = 6.28255e-09
DICPCG:  Solving for p_rgh, Initial residual = 0.0113113, Final residual = 8.81997e-08, No Iterations 586
time step continuity errors : sum local = 3.56019e-11, global = 2.23769e-15, cumulative = 6.28255e-09
smoothSolver:  Solving for epsilon, Initial residual = 0.0107606, Final residual = 8.3956e-08, No Iterations 6
smoothSolver:  Solving for k, Initial residual = 0.203198, Final residual = 3.11022e-08, No Iterations 9
Particle 0 Debug:
  Vol Integrated: 2.7e-08 (Expected: 2.7e-08)
  Buoyancy: (-1.75496e-10 0.000372989 -1.75804e-10)
  Viscous: (2.32924e-13 8.46048e-07 2.31694e-13)
  Gravity: (0 -0.00052974 0)
  Total: (-1.75263e-10 -0.000155905 -1.75572e-10)
ExecutionTime = 558.43 s  ClockTime = 559 s

Courant Number mean: 0.00145623 max: 0.628885
Interface Courant Number mean: 0 max: 0
deltaT = 0.00744038
Time = 0.0429579

PIMPLE: iteration 1
smoothSolver:  Solving for alpha.water, Initial residual = 0.485591, Final residual = 1.0018e-06, No Iterations 1000
Phase-1 volume fraction = 1  Min(alpha.water) = 1  Max(alpha.water) = 1
MULES: Correcting alpha.water
MULES: Correcting alpha.water
Phase-1 volume fraction = 1  Min(alpha.water) = 1  Max(alpha.water) = 1
DICPCG:  Solving for p_rgh, Initial residual = 0.114038, Final residual = 0.00569043, No Iterations 22
time step continuity errors : sum local = 2.64803e-06, global = -1.91955e-08, cumulative = -1.29129e-08
DICPCG:  Solving for p_rgh, Initial residual = 0.0624819, Final residual = 0.00311431, No Iterations 147
time step continuity errors : sum local = 1.50617e-06, global = -1.25409e-07, cumulative = -1.38322e-07
DICPCG:  Solving for p_rgh, Initial residual = 0.0215198, Final residual = 7.82397e-08, No Iterations 590
time step continuity errors : sum local = 3.90733e-11, global = -5.41158e-16, cumulative = -1.38322e-07
smoothSolver:  Solving for epsilon, Initial residual = 0.0216895, Final residual = 4.77659e-08, No Iterations 9
smoothSolver:  Solving for k, Initial residual = 0.240996, Final residual = 5.1219e-08, No Iterations 12
Particle 0 Debug:
  Vol Integrated: 2.7e-08 (Expected: 2.7e-08)
  Buoyancy: (-8.39122e-10 0.000418539 -8.39024e-10)
  Viscous: (4.57615e-13 8.90876e-07 4.57077e-13)
  Gravity: (0 -0.00052974 0)
  Total: (-8.38664e-10 -0.000110311 -8.38567e-10)
ExecutionTime = 600.38 s  ClockTime = 601 s

Courant Number mean: 0.00220515 max: 0.866956
Interface Courant Number mean: 0 max: 0
deltaT = 0.0082986
Time = 0.0512565

PIMPLE: iteration 1
smoothSolver:  Solving for alpha.water, Initial residual = 0.387077, Final residual = 7.83607e-07, No Iterations 1000
Phase-1 volume fraction = 1  Min(alpha.water) = 1  Max(alpha.water) = 1
MULES: Correcting alpha.water
MULES: Correcting alpha.water
Phase-1 volume fraction = 1  Min(alpha.water) = 1  Max(alpha.water) = 1
DICPCG:  Solving for p_rgh, Initial residual = 0.0833383, Final residual = 0.00408639, No Iterations 23
time step continuity errors : sum local = 3.30662e-06, global = 4.11398e-08, cumulative = -9.71823e-08
DICPCG:  Solving for p_rgh, Initial residual = 0.0476539, Final residual = 0.00222851, No Iterations 17
time step continuity errors : sum local = 1.82805e-06, global = 2.91154e-07, cumulative = 1.93972e-07
DICPCG:  Solving for p_rgh, Initial residual = 0.0199398, Final residual = 7.53797e-08, No Iterations 590
time step continuity errors : sum local = 6.18749e-11, global = 7.27379e-15, cumulative = 1.93972e-07
smoothSolver:  Solving for epsilon, Initial residual = 0.042785, Final residual = 7.61618e-08, No Iterations 12
smoothSolver:  Solving for k, Initial residual = 0.228414, Final residual = 4.70547e-08, No Iterations 16
Particle 0 Debug:
  Vol Integrated: 2.7e-08 (Expected: 2.7e-08)
  Buoyancy: (2.97629e-09 0.000431699 2.97616e-09)
  Viscous: (2.0022e-12 9.36944e-07 2.00179e-12)
  Gravity: (0 -0.00052974 0)
  Total: (2.97829e-09 -9.71037e-05 2.97816e-09)
ExecutionTime = 642.06 s  ClockTime = 642 s

Courant Number mean: 0.0030573 max: 1.09569
Interface Courant Number mean: 0 max: 0
deltaT = 0.00757385
Time = 0.0588304

PIMPLE: iteration 1
smoothSolver:  Solving for alpha.water, Initial residual = 0.366382, Final residual = 5.5642e-07, No Iterations 1000
Phase-1 volume fraction = 1  Min(alpha.water) = 1  Max(alpha.water) = 1
MULES: Correcting alpha.water
MULES: Correcting alpha.water
Phase-1 volume fraction = 1  Min(alpha.water) = 1  Max(alpha.water) = 1
DICPCG:  Solving for p_rgh, Initial residual = 0.104044, Final residual = 0.00457038, No Iterations 11
time step continuity errors : sum local = 3.18009e-06, global = -5.95563e-08, cumulative = 1.34415e-07
DICPCG:  Solving for p_rgh, Initial residual = 0.0597649, Final residual = 0.00286811, No Iterations 32
time step continuity errors : sum local = 2.04365e-06, global = -1.93813e-07, cumulative = -5.9398e-08
DICPCG:  Solving for p_rgh, Initial residual = 0.026231, Final residual = 8.50043e-08, No Iterations 590
time step continuity errors : sum local = 6.04788e-11, global = -8.66485e-15, cumulative = -5.9398e-08
smoothSolver:  Solving for epsilon, Initial residual = 0.0654474, Final residual = 7.09017e-08, No Iterations 14
smoothSolver:  Solving for k, Initial residual = 0.16974, Final residual = 9.47684e-08, No Iterations 17
Particle 0 Debug:
  Vol Integrated: 2.69986e-08 (Expected: 2.7e-08)
  Buoyancy: (-1.2855e-09 0.000484776 -1.28549e-09)
  Viscous: (-3.07328e-12 9.83094e-07 -3.07332e-12)
  Gravity: (0 -0.00052974 0)
  Total: (-1.28857e-09 -4.39813e-05 -1.28856e-09)
ExecutionTime = 682.04 s  ClockTime = 682 s

Courant Number mean: 0.00338168 max: 1.11157
Interface Courant Number mean: 0 max: 0
deltaT = 0.00681363
Time = 0.065644

PIMPLE: iteration 1
smoothSolver:  Solving for alpha.water, Initial residual = 0.267376, Final residual = 4.02434e-07, No Iterations 1000
Phase-1 volume fraction = 1  Min(alpha.water) = 1  Max(alpha.water) = 1
MULES: Correcting alpha.water
MULES: Correcting alpha.water
Phase-1 volume fraction = 1  Min(alpha.water) = 1  Max(alpha.water) = 1
DICPCG:  Solving for p_rgh, Initial residual = 0.0808376, Final residual = 0.00363627, No Iterations 32
time step continuity errors : sum local = 2.74685e-06, global = 6.55803e-07, cumulative = 5.96404e-07
DICPCG:  Solving for p_rgh, Initial residual = 0.042536, Final residual = 0.00209056, No Iterations 33
time step continuity errors : sum local = 1.59618e-06, global = 3.67584e-07, cumulative = 9.63989e-07
DICPCG:  Solving for p_rgh, Initial residual = 0.0205962, Final residual = 8.77674e-08, No Iterations 591
time step continuity errors : sum local = 6.70646e-11, global = 2.51344e-14, cumulative = 9.63989e-07
smoothSolver:  Solving for epsilon, Initial residual = 0.0754257, Final residual = 6.08554e-08, No Iterations 15
smoothSolver:  Solving for k, Initial residual = 0.121376, Final residual = 6.35649e-08, No Iterations 18
Particle 0 Debug:
  Vol Integrated: 2.7e-08 (Expected: 2.7e-08)
  Buoyancy: (2.08901e-10 0.000451865 2.088e-10)
  Viscous: (6.51478e-13 1.00651e-06 6.51561e-13)
  Gravity: (0 -0.00052974 0)
  Total: (2.09553e-10 -7.6868e-05 2.09452e-10)
ExecutionTime = 721.96 s  ClockTime = 722 s

Courant Number mean: 0.00345269 max: 1.04191
Interface Courant Number mean: 0 max: 0
deltaT = 0.00653956
Time = 0.0721836

PIMPLE: iteration 1
smoothSolver:  Solving for alpha.water, Initial residual = 0.257895, Final residual = 3.23142e-07, No Iterations 1000
Phase-1 volume fraction = 1  Min(alpha.water) = 1  Max(alpha.water) = 1
MULES: Correcting alpha.water
MULES: Correcting alpha.water
Phase-1 volume fraction = 1  Min(alpha.water) = 1  Max(alpha.water) = 1
DICPCG:  Solving for p_rgh, Initial residual = 0.0924512, Final residual = 0.00456284, No Iterations 15
time step continuity errors : sum local = 2.93869e-06, global = -7.44065e-08, cumulative = 8.89582e-07
DICPCG:  Solving for p_rgh, Initial residual = 0.052093, Final residual = 0.00246834, No Iterations 20
time step continuity errors : sum local = 1.6155e-06, global = -3.11368e-08, cumulative = 8.58445e-07
DICPCG:  Solving for p_rgh, Initial residual = 0.0245091, Final residual = 9.31635e-08, No Iterations 592
time step continuity errors : sum local = 6.12063e-11, global = -1.25202e-14, cumulative = 8.58445e-07
smoothSolver:  Solving for epsilon, Initial residual = 0.0833718, Final residual = 4.15139e-08, No Iterations 16
smoothSolver:  Solving for k, Initial residual = 0.0972682, Final residual = 8.02164e-08, No Iterations 18
Particle 0 Debug:
  Vol Integrated: 2.7e-08 (Expected: 2.7e-08)
  Buoyancy: (4.59619e-10 0.000489817 4.59613e-10)
  Viscous: (-4.21558e-13 1.03468e-06 -4.21936e-13)
  Gravity: (0 -0.00052974 0)
  Total: (4.59198e-10 -3.88878e-05 4.59191e-10)
ExecutionTime = 761.44 s  ClockTime = 762 s

Courant Number mean: 0.00376005 max: 1.06211
Interface Courant Number mean: 0 max: 0
deltaT = 0.00615711
Time = 0.0783407

PIMPLE: iteration 1
smoothSolver:  Solving for alpha.water, Initial residual = 0.199916, Final residual = 2.70865e-07, No Iterations 1000
Phase-1 volume fraction = 1  Min(alpha.water) = 1  Max(alpha.water) = 1
MULES: Correcting alpha.water
MULES: Correcting alpha.water
Phase-1 volume fraction = 1  Min(alpha.water) = 1  Max(alpha.water) = 1
DICPCG:  Solving for p_rgh, Initial residual = 0.076117, Final residual = 0.00320601, No Iterations 33
time step continuity errors : sum local = 2.2922e-06, global = 4.75753e-07, cumulative = 1.3342e-06
DICPCG:  Solving for p_rgh, Initial residual = 0.0411716, Final residual = 0.00202493, No Iterations 34
time step continuity errors : sum local = 1.4611e-06, global = 2.66398e-07, cumulative = 1.6006e-06
DICPCG:  Solving for p_rgh, Initial residual = 0.0205985, Final residual = 8.65452e-08, No Iterations 592
time step continuity errors : sum local = 6.27349e-11, global = -4.80614e-14, cumulative = 1.6006e-06
smoothSolver:  Solving for epsilon, Initial residual = 0.080237, Final residual = 7.96821e-08, No Iterations 15
smoothSolver:  Solving for k, Initial residual = 0.0772055, Final residual = 5.10203e-08, No Iterations 18
Particle 0 Debug:
  Vol Integrated: 2.7e-08 (Expected: 2.7e-08)
  Buoyancy: (1.88522e-09 0.000503777 1.88544e-09)
  Viscous: (-5.288e-12 9.60994e-07 -5.29004e-12)
  Gravity: (0 -0.00052974 0)
  Total: (1.87993e-09 -2.50016e-05 1.88015e-09)
ExecutionTime = 801.69 s  ClockTime = 802 s

Courant Number mean: 0.00391384 max: 1.02854
Interface Courant Number mean: 0 max: 0
deltaT = 0.0059863
Time = 0.084327

PIMPLE: iteration 1
smoothSolver:  Solving for alpha.water, Initial residual = 0.188433, Final residual = 2.38013e-07, No Iterations 1000
Phase-1 volume fraction = 1  Min(alpha.water) = 1  Max(alpha.water) = 1
MULES: Correcting alpha.water
MULES: Correcting alpha.water
Phase-1 volume fraction = 1  Min(alpha.water) = 1  Max(alpha.water) = 1
DICPCG:  Solving for p_rgh, Initial residual = 0.0772566, Final residual = 0.0037185, No Iterations 33
time step continuity errors : sum local = 2.52886e-06, global = 3.16974e-07, cumulative = 1.91757e-06
DICPCG:  Solving for p_rgh, Initial residual = 0.0420983, Final residual = 0.00180731, No Iterations 35
time step continuity errors : sum local = 1.23758e-06, global = 1.77923e-07, cumulative = 2.09549e-06
DICPCG:  Solving for p_rgh, Initial residual = 0.0205696, Final residual = 9.53514e-08, No Iterations 592
time step continuity errors : sum local = 6.56582e-11, global = -1.5432e-14, cumulative = 2.09549e-06
smoothSolver:  Solving for epsilon, Initial residual = 0.0749393, Final residual = 5.5064e-08, No Iterations 15
smoothSolver:  Solving for k, Initial residual = 0.0632179, Final residual = 6.15232e-08, No Iterations 17
Particle 0 Debug:
  Vol Integrated: 2.7e-08 (Expected: 2.7e-08)
  Buoyancy: (4.11037e-10 0.000490781 4.10948e-10)
  Viscous: (-6.40013e-12 8.33214e-07 -6.40168e-12)
  Gravity: (0 -0.00052974 0)
  Total: (4.04637e-10 -3.81262e-05 4.04546e-10)
ExecutionTime = 843.17 s  ClockTime = 843 s

Courant Number mean: 0.00414431 max: 1.01681
Interface Courant Number mean: 0 max: 0
deltaT = 0.00588732
Time = 0.0902143

PIMPLE: iteration 1
smoothSolver:  Solving for alpha.water, Initial residual = 0.178314, Final residual = 2.10034e-07, No Iterations 1000
Phase-1 volume fraction = 1  Min(alpha.water) = 1  Max(alpha.water) = 1
MULES: Correcting alpha.water
MULES: Correcting alpha.water
Phase-1 volume fraction = 1  Min(alpha.water) = 1  Max(alpha.water) = 1
DICPCG:  Solving for p_rgh, Initial residual = 0.0715007, Final residual = 0.00351451, No Iterations 34
time step continuity errors : sum local = 2.41931e-06, global = 3.71275e-07, cumulative = 2.46677e-06
DICPCG:  Solving for p_rgh, Initial residual = 0.0410204, Final residual = 0.00172052, No Iterations 36
time step continuity errors : sum local = 1.19082e-06, global = 2.05003e-07, cumulative = 2.67177e-06
DICPCG:  Solving for p_rgh, Initial residual = 0.0198269, Final residual = 8.63598e-08, No Iterations 556
time step continuity errors : sum local = 6.01157e-11, global = 1.57107e-14, cumulative = 2.67177e-06
smoothSolver:  Solving for epsilon, Initial residual = 0.0681186, Final residual = 8.35664e-08, No Iterations 14
smoothSolver:  Solving for k, Initial residual = 0.0531598, Final residual = 6.7004e-08, No Iterations 16
Particle 0 Debug:
  Vol Integrated: 2.7e-08 (Expected: 2.7e-08)
  Buoyancy: (-1.37126e-09 0.000484036 -1.37156e-09)
  Viscous: (-2.33102e-12 8.08816e-07 -2.33126e-12)
  Gravity: (0 -0.00052974 0)
  Total: (-1.37359e-09 -4.48955e-05 -1.37389e-09)
ExecutionTime = 883.18 s  ClockTime = 883 s

Courant Number mean: 0.00439532 max: 1.02697
Interface Courant Number mean: 0 max: 0
deltaT = 0.00573272
Time = 0.095947

PIMPLE: iteration 1
smoothSolver:  Solving for alpha.water, Initial residual = 0.149818, Final residual = 1.9187e-07, No Iterations 1000
Phase-1 volume fraction = 1  Min(alpha.water) = 1  Max(alpha.water) = 1
MULES: Correcting alpha.water
MULES: Correcting alpha.water
Phase-1 volume fraction = 1  Min(alpha.water) = 1  Max(alpha.water) = 1
DICPCG:  Solving for p_rgh, Initial residual = 0.0753184, Final residual = 0.00327222, No Iterations 35
time step continuity errors : sum local = 2.15178e-06, global = 3.59565e-07, cumulative = 3.03134e-06
DICPCG:  Solving for p_rgh, Initial residual = 0.041489, Final residual = 0.00195198, No Iterations 36
time step continuity errors : sum local = 1.29129e-06, global = 1.9935e-07, cumulative = 3.23069e-06
DICPCG:  Solving for p_rgh, Initial residual = 0.0201869, Final residual = 9.41129e-08, No Iterations 592
time step continuity errors : sum local = 6.26946e-11, global = 2.56808e-14, cumulative = 3.23069e-06
smoothSolver:  Solving for epsilon, Initial residual = 0.0609091, Final residual = 3.95985e-08, No Iterations 14
smoothSolver:  Solving for k, Initial residual = 0.0459093, Final residual = 5.41028e-08, No Iterations 15
Particle 0 Debug:
  Vol Integrated: 2.69953e-08 (Expected: 2.7e-08)
  Buoyancy: (-1.02592e-09 0.00048496 -1.02625e-09)
  Viscous: (5.84049e-12 8.51313e-07 5.84177e-12)
  Gravity: (0 -0.00052974 0)
  Total: (-1.02008e-09 -4.3929e-05 -1.02041e-09)
ExecutionTime = 924.22 s  ClockTime = 925 s

Courant Number mean: 0.00456965 max: 1.03071
Interface Courant Number mean: 0 max: 0
deltaT = 0.0055619
Time = 0.101509

PIMPLE: iteration 1
smoothSolver:  Solving for alpha.water, Initial residual = 0.148334, Final residual = 1.79025e-07, No Iterations 1000
Phase-1 volume fraction = 1  Min(alpha.water) = 1  Max(alpha.water) = 1
MULES: Correcting alpha.water
MULES: Correcting alpha.water
Phase-1 volume fraction = 1  Min(alpha.water) = 1  Max(alpha.water) = 1
DICPCG:  Solving for p_rgh, Initial residual = 0.0776419, Final residual = 0.0037132, No Iterations 35
time step continuity errors : sum local = 2.34264e-06, global = 2.87613e-07, cumulative = 3.5183e-06
DICPCG:  Solving for p_rgh, Initial residual = 0.041484, Final residual = 0.0017918, No Iterations 37
time step continuity errors : sum local = 1.1373e-06, global = 1.70038e-07, cumulative = 3.68834e-06
DICPCG:  Solving for p_rgh, Initial residual = 0.0197506, Final residual = 8.47242e-08, No Iterations 593
time step continuity errors : sum local = 5.42089e-11, global = 1.32095e-14, cumulative = 3.68834e-06
smoothSolver:  Solving for epsilon, Initial residual = 0.0535948, Final residual = 4.03941e-08, No Iterations 13
smoothSolver:  Solving for k, Initial residual = 0.0402696, Final residual = 8.2602e-08, No Iterations 13
Particle 0 Debug:
  Vol Integrated: 2.7e-08 (Expected: 2.7e-08)
  Buoyancy: (5.48378e-10 0.000486654 5.48471e-10)
  Viscous: (5.91873e-12 9.02194e-07 5.92006e-12)
  Gravity: (0 -0.00052974 0)
  Total: (5.54296e-10 -4.21842e-05 5.54391e-10)
ExecutionTime = 966.77 s  ClockTime = 967 s

Courant Number mean: 0.00469708 max: 1.02662
Interface Courant Number mean: 0 max: 0
deltaT = 0.0054177
Time = 0.106927

PIMPLE: iteration 1
smoothSolver:  Solving for alpha.water, Initial residual = 0.123139, Final residual = 1.68709e-07, No Iterations 1000
Phase-1 volume fraction = 1  Min(alpha.water) = 1  Max(alpha.water) = 1
MULES: Correcting alpha.water
MULES: Correcting alpha.water
Phase-1 volume fraction = 1  Min(alpha.water) = 1  Max(alpha.water) = 1
DICPCG:  Solving for p_rgh, Initial residual = 0.0790177, Final residual = 0.00339283, No Iterations 36
time step continuity errors : sum local = 2.05532e-06, global = 2.92888e-07, cumulative = 3.98122e-06
DICPCG:  Solving for p_rgh, Initial residual = 0.0410523, Final residual = 0.00201728, No Iterations 37
time step continuity errors : sum local = 1.22991e-06, global = 1.72453e-07, cumulative = 4.15368e-06
DICPCG:  Solving for p_rgh, Initial residual = 0.0198125, Final residual = 8.57968e-08, No Iterations 593
time step continuity errors : sum local = 5.27787e-11, global = 4.32314e-14, cumulative = 4.15368e-06
smoothSolver:  Solving for epsilon, Initial residual = 0.0480031, Final residual = 3.79016e-08, No Iterations 12
smoothSolver:  Solving for k, Initial residual = 0.0361273, Final residual = 9.93912e-08, No Iterations 12
Particle 0 Debug:
  Vol Integrated: 2.7e-08 (Expected: 2.7e-08)
  Buoyancy: (-2.35272e-10 0.000488566 -2.35393e-10)
  Viscous: (6.87409e-12 9.59401e-07 6.87531e-12)
  Gravity: (0 -0.00052974 0)
  Total: (-2.28398e-10 -4.0215e-05 -2.28518e-10)
ExecutionTime = 1009.41 s  ClockTime = 1010 s

Courant Number mean: 0.00481737 max: 1.02367
Interface Courant Number mean: 0 max: 0
deltaT = 0.00529244
Time = 0.112219

PIMPLE: iteration 1
smoothSolver:  Solving for alpha.water, Initial residual = 0.115431, Final residual = 1.59362e-07, No Iterations 1000
Phase-1 volume fraction = 1  Min(alpha.water) = 1  Max(alpha.water) = 1
MULES: Correcting alpha.water
MULES: Correcting alpha.water
Phase-1 volume fraction = 1  Min(alpha.water) = 1  Max(alpha.water) = 1
DICPCG:  Solving for p_rgh, Initial residual = 0.0803021, Final residual = 0.00389282, No Iterations 36
time step continuity errors : sum local = 2.27309e-06, global = 2.226e-07, cumulative = 4.37628e-06
DICPCG:  Solving for p_rgh, Initial residual = 0.0416937, Final residual = 0.00184833, No Iterations 38
time step continuity errors : sum local = 1.0879e-06, global = 1.44257e-07, cumulative = 4.52053e-06
DICPCG:  Solving for p_rgh, Initial residual = 0.0196059, Final residual = 8.70327e-08, No Iterations 593
time step continuity errors : sum local = 5.16796e-11, global = -1.92771e-14, cumulative = 4.52053e-06
smoothSolver:  Solving for epsilon, Initial residual = 0.0436209, Final residual = 3.65626e-08, No Iterations 11
smoothSolver:  Solving for k, Initial residual = 0.0328966, Final residual = 4.59716e-08, No Iterations 13
Particle 0 Debug:
  Vol Integrated: 2.7e-08 (Expected: 2.7e-08)
  Buoyancy: (2.80815e-10 0.000490345 2.80876e-10)
  Viscous: (3.50234e-12 1.02396e-06 3.50316e-12)
  Gravity: (0 -0.00052974 0)
  Total: (2.84317e-10 -3.83715e-05 2.84379e-10)
ExecutionTime = 1049.64 s  ClockTime = 1050 s

Courant Number mean: 0.00492548 max: 1.02133
Interface Courant Number mean: 0 max: 0
deltaT = 0.00518189
Time = 0.117401

PIMPLE: iteration 1
smoothSolver:  Solving for alpha.water, Initial residual = 0.107977, Final residual = 1.49361e-07, No Iterations 1000
Phase-1 volume fraction = 1  Min(alpha.water) = 1  Max(alpha.water) = 1
MULES: Correcting alpha.water
MULES: Correcting alpha.water
Phase-1 volume fraction = 1  Min(alpha.water) = 1  Max(alpha.water) = 1
DICPCG:  Solving for p_rgh, Initial residual = 0.0798941, Final residual = 0.00342114, No Iterations 37
time step continuity errors : sum local = 1.9187e-06, global = 2.07108e-07, cumulative = 4.72764e-06
DICPCG:  Solving for p_rgh, Initial residual = 0.0417911, Final residual = 0.0020604, No Iterations 38
time step continuity errors : sum local = 1.16545e-06, global = 1.26701e-07, cumulative = 4.85434e-06
DICPCG:  Solving for p_rgh, Initial residual = 0.0197227, Final residual = 8.67746e-08, No Iterations 593
time step continuity errors : sum local = 4.95736e-11, global = -2.3211e-14, cumulative = 4.85434e-06
smoothSolver:  Solving for epsilon, Initial residual = 0.0403025, Final residual = 6.85286e-08, No Iterations 10
smoothSolver:  Solving for k, Initial residual = 0.0301626, Final residual = 5.0052e-08, No Iterations 13
Particle 0 Debug:
  Vol Integrated: 2.7e-08 (Expected: 2.7e-08)
  Buoyancy: (-8.95907e-10 0.000495756 -8.95972e-10)
  Viscous: (2.42516e-12 1.06428e-06 2.4257e-12)
  Gravity: (0 -0.00052974 0)
  Total: (-8.93482e-10 -3.29197e-05 -8.93546e-10)
ExecutionTime = 1089.26 s  ClockTime = 1090 s

Courant Number mean: 0.00503043 max: 1.01944
Interface Courant Number mean: 0 max: 0
deltaT = 0.00508306
Time = 0.122484

PIMPLE: iteration 1
smoothSolver:  Solving for alpha.water, Initial residual = 0.0997752, Final residual = 1.42039e-07, No Iterations 1000
Phase-1 volume fraction = 1  Min(alpha.water) = 1  Max(alpha.water) = 1
MULES: Correcting alpha.water
MULES: Correcting alpha.water
Phase-1 volume fraction = 1  Min(alpha.water) = 1  Max(alpha.water) = 1
DICPCG:  Solving for p_rgh, Initial residual = 0.0795635, Final residual = 0.00316985, No Iterations 38
time step continuity errors : sum local = 1.75343e-06, global = 2.19443e-07, cumulative = 5.07379e-06
DICPCG:  Solving for p_rgh, Initial residual = 0.0409713, Final residual = 0.00188576, No Iterations 39
time step continuity errors : sum local = 1.05174e-06, global = 1.19204e-07, cumulative = 5.19299e-06
DICPCG:  Solving for p_rgh, Initial residual = 0.018962, Final residual = 8.77899e-08, No Iterations 593
time step continuity errors : sum local = 4.94478e-11, global = 1.60862e-14, cumulative = 5.19299e-06
smoothSolver:  Solving for epsilon, Initial residual = 0.0375491, Final residual = 7.0026e-08, No Iterations 10
smoothSolver:  Solving for k, Initial residual = 0.0279316, Final residual = 4.52452e-08, No Iterations 13
Particle 0 Debug:
  Vol Integrated: 2.7e-08 (Expected: 2.7e-08)
  Buoyancy: (-1.88074e-09 0.000497908 -1.88075e-09)
  Viscous: (3.73723e-12 1.09335e-06 3.73776e-12)
  Gravity: (0 -0.00052974 0)
  Total: (-1.877e-09 -3.07383e-05 -1.87701e-09)
ExecutionTime = 1129.03 s  ClockTime = 1129 s

Courant Number mean: 0.00512969 max: 1.01602
Interface Courant Number mean: 0 max: 0
deltaT = 0.00500291
Time = 0.127487

PIMPLE: iteration 1
smoothSolver:  Solving for alpha.water, Initial residual = 0.0961254, Final residual = 1.35528e-07, No Iterations 1000
Phase-1 volume fraction = 1  Min(alpha.water) = 1  Max(alpha.water) = 1
MULES: Correcting alpha.water
MULES: Correcting alpha.water
Phase-1 volume fraction = 1  Min(alpha.water) = 1  Max(alpha.water) = 1
DICPCG:  Solving for p_rgh, Initial residual = 0.080604, Final residual = 0.00347424, No Iterations 38
time step continuity errors : sum local = 1.87278e-06, global = 1.54859e-07, cumulative = 5.34785e-06
DICPCG:  Solving for p_rgh, Initial residual = 0.0412766, Final residual = 0.00177678, No Iterations 40
time step continuity errors : sum local = 9.66295e-07, global = 9.43142e-08, cumulative = 5.44217e-06
DICPCG:  Solving for p_rgh, Initial residual = 0.0185201, Final residual = 8.53613e-08, No Iterations 593
time step continuity errors : sum local = 4.68803e-11, global = -1.12375e-14, cumulative = 5.44217e-06
smoothSolver:  Solving for epsilon, Initial residual = 0.0353313, Final residual = 7.50815e-08, No Iterations 10
smoothSolver:  Solving for k, Initial residual = 0.0261493, Final residual = 9.02259e-08, No Iterations 12
Particle 0 Debug:
  Vol Integrated: 2.7e-08 (Expected: 2.7e-08)
  Buoyancy: (1.47049e-10 0.000500313 1.47027e-10)
  Viscous: (5.62619e-12 1.12034e-06 5.62664e-12)
  Gravity: (0 -0.00052974 0)
  Total: (1.52676e-10 -2.83064e-05 1.52654e-10)
ExecutionTime = 1168.63 s  ClockTime = 1169 s

Courant Number mean: 0.00523202 max: 1.01444
Interface Courant Number mean: 0 max: 0
deltaT = 0.0049317
Time = 0.132419

PIMPLE: iteration 1
smoothSolver:  Solving for alpha.water, Initial residual = 0.0888633, Final residual = 1.30727e-07, No Iterations 1000
Phase-1 volume fraction = 1  Min(alpha.water) = 1  Max(alpha.water) = 1
MULES: Correcting alpha.water
MULES: Correcting alpha.water
Phase-1 volume fraction = 1  Min(alpha.water) = 1  Max(alpha.water) = 1
DICPCG:  Solving for p_rgh, Initial residual = 0.0814204, Final residual = 0.00392331, No Iterations 38
time step continuity errors : sum local = 2.07237e-06, global = 9.54997e-08, cumulative = 5.53766e-06
DICPCG:  Solving for p_rgh, Initial residual = 0.0415809, Final residual = 0.001895, No Iterations 40
time step continuity errors : sum local = 1.01057e-06, global = 1.00035e-07, cumulative = 5.6377e-06
DICPCG:  Solving for p_rgh, Initial residual = 0.0181839, Final residual = 8.42039e-08, No Iterations 593
time step continuity errors : sum local = 4.53497e-11, global = -3.59334e-14, cumulative = 5.6377e-06
smoothSolver:  Solving for epsilon, Initial residual = 0.0334922, Final residual = 7.0543e-08, No Iterations 10
smoothSolver:  Solving for k, Initial residual = 0.0246706, Final residual = 7.35572e-08, No Iterations 12
Particle 0 Debug:
  Vol Integrated: 2.7e-08 (Expected: 2.7e-08)
  Buoyancy: (-6.40028e-10 0.000502164 -6.40035e-10)
  Viscous: (4.84975e-12 1.14623e-06 4.85015e-12)
  Gravity: (0 -0.00052974 0)
  Total: (-6.35178e-10 -2.64298e-05 -6.35185e-10)
ExecutionTime = 1211.21 s  ClockTime = 1212 s

Courant Number mean: 0.00533015 max: 1.01291
Interface Courant Number mean: 0 max: 0
deltaT = 0.00486882
Time = 0.137287

PIMPLE: iteration 1
smoothSolver:  Solving for alpha.water, Initial residual = 0.0843847, Final residual = 1.26856e-07, No Iterations 1000
Phase-1 volume fraction = 1  Min(alpha.water) = 1  Max(alpha.water) = 1
MULES: Correcting alpha.water
MULES: Correcting alpha.water
Phase-1 volume fraction = 1  Min(alpha.water) = 1  Max(alpha.water) = 1
DICPCG:  Solving for p_rgh, Initial residual = 0.0823935, Final residual = 0.00350971, No Iterations 39
time step continuity errors : sum local = 1.8207e-06, global = 9.61206e-08, cumulative = 5.73382e-06
DICPCG:  Solving for p_rgh, Initial residual = 0.0412852, Final residual = 0.00176931, No Iterations 41
time step continuity errors : sum local = 9.26658e-07, global = 7.9728e-08, cumulative = 5.81355e-06
DICPCG:  Solving for p_rgh, Initial residual = 0.0176399, Final residual = 9.95644e-08, No Iterations 591
time step continuity errors : sum local = 5.26863e-11, global = 9.72547e-15, cumulative = 5.81355e-06
smoothSolver:  Solving for epsilon, Initial residual = 0.0319334, Final residual = 6.0802e-08, No Iterations 10
smoothSolver:  Solving for k, Initial residual = 0.02338, Final residual = 5.80315e-08, No Iterations 12
Particle 0 Debug:
  Vol Integrated: 2.7e-08 (Expected: 2.7e-08)
  Buoyancy: (-6.72554e-10 0.000503771 -6.72556e-10)
  Viscous: (5.45812e-12 1.17166e-06 5.45845e-12)
  Gravity: (0 -0.00052974 0)
  Total: (-6.67096e-10 -2.47969e-05 -6.67098e-10)
ExecutionTime = 1251.41 s  ClockTime = 1252 s

Courant Number mean: 0.00542589 max: 1.01175
Interface Courant Number mean: 0 max: 0
deltaT = 0.0048123
Time = 0.1421

PIMPLE: iteration 1
smoothSolver:  Solving for alpha.water, Initial residual = 0.0954172, Final residual = 1.22964e-07, No Iterations 1000
Phase-1 volume fraction = 1  Min(alpha.water) = 1  Max(alpha.water) = 1
MULES: Correcting alpha.water
MULES: Correcting alpha.water
Phase-1 volume fraction = 1  Min(alpha.water) = 1  Max(alpha.water) = 1
DICPCG:  Solving for p_rgh, Initial residual = 0.0833655, Final residual = 0.00387989, No Iterations 39
time step continuity errors : sum local = 1.97917e-06, global = 3.98483e-08, cumulative = 5.8534e-06
DICPCG:  Solving for p_rgh, Initial residual = 0.041694, Final residual = 0.00187369, No Iterations 41
time step continuity errors : sum local = 9.65237e-07, global = 8.53633e-08, cumulative = 5.93876e-06
DICPCG:  Solving for p_rgh, Initial residual = 0.0173673, Final residual = 8.34198e-08, No Iterations 592
time step continuity errors : sum local = 4.34302e-11, global = 3.02345e-15, cumulative = 5.93876e-06
smoothSolver:  Solving for epsilon, Initial residual = 0.0305869, Final residual = 4.98702e-08, No Iterations 10
smoothSolver:  Solving for k, Initial residual = 0.0222319, Final residual = 4.47437e-08, No Iterations 12
Particle 0 Debug:
  Vol Integrated: 2.7e-08 (Expected: 2.7e-08)
  Buoyancy: (-7.28277e-10 0.000505161 -7.28274e-10)
  Viscous: (6.04595e-12 1.19676e-06 6.04621e-12)
  Gravity: (0 -0.00052974 0)
  Total: (-7.22231e-10 -2.33826e-05 -7.22228e-10)
ExecutionTime = 1291.47 s  ClockTime = 1292 s

Courant Number mean: 0.00551808 max: 1.01076
Interface Courant Number mean: 0 max: 0
deltaT = 0.00476106
Time = 0.146861

PIMPLE: iteration 1
smoothSolver:  Solving for alpha.water, Initial residual = 0.0771878, Final residual = 1.19834e-07, No Iterations 1000
Phase-1 volume fraction = 1  Min(alpha.water) = 1  Max(alpha.water) = 1
MULES: Correcting alpha.water
MULES: Correcting alpha.water
Phase-1 volume fraction = 1  Min(alpha.water) = 1  Max(alpha.water) = 1
DICPCG:  Solving for p_rgh, Initial residual = 0.0856666, Final residual = 0.00419557, No Iterations 28
time step continuity errors : sum local = 2.10432e-06, global = -2.37815e-08, cumulative = 5.91498e-06
DICPCG:  Solving for p_rgh, Initial residual = 0.0424273, Final residual = 0.00192481, No Iterations 27
time step continuity errors : sum local = 9.75264e-07, global = 2.97795e-08, cumulative = 5.94476e-06
DICPCG:  Solving for p_rgh, Initial residual = 0.0170638, Final residual = 8.69659e-08, No Iterations 593
time step continuity errors : sum local = 4.45528e-11, global = -3.66375e-14, cumulative = 5.94476e-06
smoothSolver:  Solving for epsilon, Initial residual = 0.0293868, Final residual = 3.96464e-08, No Iterations 10
smoothSolver:  Solving for k, Initial residual = 0.0212011, Final residual = 9.02629e-08, No Iterations 11
Particle 0 Debug:
  Vol Integrated: 2.69967e-08 (Expected: 2.7e-08)
  Buoyancy: (6.45612e-09 0.000507005 6.45616e-09)
  Viscous: (-1.76718e-11 1.20563e-06 -1.76717e-11)
  Gravity: (0 -0.00052974 0)
  Total: (6.43845e-09 -2.15293e-05 6.43849e-09)
ExecutionTime = 1331.17 s  ClockTime = 1331 s

Courant Number mean: 0.00560953 max: 1.0095
Interface Courant Number mean: 0 max: 0
deltaT = 0.00471626
Time = 0.151577

PIMPLE: iteration 1
smoothSolver:  Solving for alpha.water, Initial residual = 0.0793119, Final residual = 1.19017e-07, No Iterations 1000
Phase-1 volume fraction = 1  Min(alpha.water) = 1  Max(alpha.water) = 1
MULES: Correcting alpha.water
MULES: Correcting alpha.water
Phase-1 volume fraction = 1  Min(alpha.water) = 1  Max(alpha.water) = 1
DICPCG:  Solving for p_rgh, Initial residual = 0.0903827, Final residual = 0.00451542, No Iterations 22
time step continuity errors : sum local = 2.25846e-06, global = -7.98157e-09, cumulative = 5.93678e-06
DICPCG:  Solving for p_rgh, Initial residual = 0.0439679, Final residual = 0.00209722, No Iterations 25
time step continuity errors : sum local = 1.06033e-06, global = -2.16229e-08, cumulative = 5.91515e-06
DICPCG:  Solving for p_rgh, Initial residual = 0.0167821, Final residual = 8.8393e-08, No Iterations 593
time step continuity errors : sum local = 4.50327e-11, global = -8.55988e-15, cumulative = 5.91515e-06
smoothSolver:  Solving for epsilon, Initial residual = 0.0283212, Final residual = 3.09888e-08, No Iterations 10
smoothSolver:  Solving for k, Initial residual = 0.0202696, Final residual = 6.97395e-08, No Iterations 11
Particle 0 Debug:
  Vol Integrated: 2.7e-08 (Expected: 2.7e-08)
  Buoyancy: (-1.94971e-10 0.00050776 -1.95009e-10)
  Viscous: (-1.82611e-11 1.1865e-06 -1.8261e-11)
  Gravity: (0 -0.00052974 0)
  Total: (-2.13232e-10 -2.07937e-05 -2.1327e-10)
ExecutionTime = 1372.32 s  ClockTime = 1373 s

Courant Number mean: 0.00570433 max: 1.00794
Interface Courant Number mean: 0 max: 0
deltaT = 0.00467911
Time = 0.156256

PIMPLE: iteration 1
smoothSolver:  Solving for alpha.water, Initial residual = 0.0808897, Final residual = 1.19252e-07, No Iterations 1000
Phase-1 volume fraction = 1  Min(alpha.water) = 1  Max(alpha.water) = 1
MULES: Correcting alpha.water
MULES: Correcting alpha.water
Phase-1 volume fraction = 1  Min(alpha.water) = 1  Max(alpha.water) = 1
DICPCG:  Solving for p_rgh, Initial residual = 0.0939326, Final residual = 0.0046586, No Iterations 22
time step continuity errors : sum local = 2.33183e-06, global = -3.10107e-09, cumulative = 5.91205e-06
DICPCG:  Solving for p_rgh, Initial residual = 0.0445937, Final residual = 0.00221698, No Iterations 24
time step continuity errors : sum local = 1.1205e-06, global = -2.62322e-08, cumulative = 5.88582e-06
DICPCG:  Solving for p_rgh, Initial residual = 0.0163685, Final residual = 8.78525e-08, No Iterations 593
time step continuity errors : sum local = 4.46865e-11, global = 2.39874e-14, cumulative = 5.88582e-06
smoothSolver:  Solving for epsilon, Initial residual = 0.0274099, Final residual = 8.32738e-08, No Iterations 9
smoothSolver:  Solving for k, Initial residual = 0.0194453, Final residual = 5.38085e-08, No Iterations 11
Particle 0 Debug:
  Vol Integrated: 2.7e-08 (Expected: 2.7e-08)
  Buoyancy: (1.93847e-09 0.000504936 1.93847e-09)
  Viscous: (-1.02515e-11 1.17908e-06 -1.02513e-11)
  Gravity: (0 -0.00052974 0)
  Total: (1.92822e-09 -2.3625e-05 1.92822e-09)
ExecutionTime = 1411.5 s  ClockTime = 1412 s

Courant Number mean: 0.00580134 max: 1.00839
Interface Courant Number mean: 0 max: 0
deltaT = 0.00464017
Time = 0.160896

PIMPLE: iteration 1
smoothSolver:  Solving for alpha.water, Initial residual = 0.08033, Final residual = 1.18331e-07, No Iterations 1000
Phase-1 volume fraction = 1  Min(alpha.water) = 1  Max(alpha.water) = 1
MULES: Correcting alpha.water
MULES: Correcting alpha.water
Phase-1 volume fraction = 1  Min(alpha.water) = 1  Max(alpha.water) = 1
DICPCG:  Solving for p_rgh, Initial residual = 0.0979058, Final residual = 0.00466981, No Iterations 21
time step continuity errors : sum local = 2.28856e-06, global = -2.81833e-09, cumulative = 5.883e-06
DICPCG:  Solving for p_rgh, Initial residual = 0.0456618, Final residual = 0.00219123, No Iterations 23
time step continuity errors : sum local = 1.08432e-06, global = -3.91943e-08, cumulative = 5.84381e-06
DICPCG:  Solving for p_rgh, Initial residual = 0.0162173, Final residual = 8.37268e-08, No Iterations 593
time step continuity errors : sum local = 4.16965e-11, global = -3.09796e-14, cumulative = 5.84381e-06
smoothSolver:  Solving for epsilon, Initial residual = 0.0266633, Final residual = 6.53518e-08, No Iterations 9
smoothSolver:  Solving for k, Initial residual = 0.0187132, Final residual = 4.08537e-08, No Iterations 11
Particle 0 Debug:
  Vol Integrated: 2.7e-08 (Expected: 2.7e-08)
  Buoyancy: (-1.548e-09 0.000504981 -1.54801e-09)
  Viscous: (-7.41468e-12 1.18256e-06 -7.41454e-12)
  Gravity: (0 -0.00052974 0)
  Total: (-1.55542e-09 -2.35768e-05 -1.55542e-09)
ExecutionTime = 1452.05 s  ClockTime = 1452 s

Courant Number mean: 0.00589149 max: 1.01063
Interface Courant Number mean: 0 max: 0
deltaT = 0.00459138
Time = 0.165488

PIMPLE: iteration 1
smoothSolver:  Solving for alpha.water, Initial residual = 0.0749596, Final residual = 1.17993e-07, No Iterations 1000
Phase-1 volume fraction = 1  Min(alpha.water) = 1  Max(alpha.water) = 1
MULES: Correcting alpha.water
MULES: Correcting alpha.water
Phase-1 volume fraction = 1  Min(alpha.water) = 1  Max(alpha.water) = 1
DICPCG:  Solving for p_rgh, Initial residual = 0.10067, Final residual = 0.00488693, No Iterations 20
time step continuity errors : sum local = 2.35936e-06, global = -2.87225e-10, cumulative = 5.84352e-06
DICPCG:  Solving for p_rgh, Initial residual = 0.0461687, Final residual = 0.0022837, No Iterations 22
time step continuity errors : sum local = 1.1136e-06, global = -3.99407e-08, cumulative = 5.80358e-06
DICPCG:  Solving for p_rgh, Initial residual = 0.0160172, Final residual = 8.15097e-08, No Iterations 593
time step continuity errors : sum local = 3.99988e-11, global = 2.32214e-14, cumulative = 5.80358e-06
smoothSolver:  Solving for epsilon, Initial residual = 0.0259556, Final residual = 4.97179e-08, No Iterations 9
smoothSolver:  Solving for k, Initial residual = 0.0179992, Final residual = 8.87092e-08, No Iterations 10
Particle 0 Debug:
  Vol Integrated: 2.7e-08 (Expected: 2.7e-08)
  Buoyancy: (1.06527e-09 0.000505163 1.06527e-09)
  Viscous: (-1.05291e-12 1.19094e-06 -1.05283e-12)
  Gravity: (0 -0.00052974 0)
  Total: (1.06422e-09 -2.33857e-05 1.06422e-09)
ExecutionTime = 1493.3 s  ClockTime = 1494 s

Courant Number mean: 0.00596194 max: 1.01045
Interface Courant Number mean: 0 max: 0
deltaT = 0.0045439
Time = 0.170032

PIMPLE: iteration 1
smoothSolver:  Solving for alpha.water, Initial residual = 0.0721509, Final residual = 1.18438e-07, No Iterations 1000
Phase-1 volume fraction = 1  Min(alpha.water) = 1  Max(alpha.water) = 1
MULES: Correcting alpha.water
MULES: Correcting alpha.water
Phase-1 volume fraction = 1  Min(alpha.water) = 1  Max(alpha.water) = 1
DICPCG:  Solving for p_rgh, Initial residual = 0.103773, Final residual = 0.00489916, No Iterations 20
time step continuity errors : sum local = 2.31858e-06, global = 7.17873e-10, cumulative = 5.8043e-06
DICPCG:  Solving for p_rgh, Initial residual = 0.0467367, Final residual = 0.00228184, No Iterations 22
time step continuity errors : sum local = 1.09028e-06, global = -4.02254e-08, cumulative = 5.76407e-06
DICPCG:  Solving for p_rgh, Initial residual = 0.0159328, Final residual = 8.071e-08, No Iterations 593
time step continuity errors : sum local = 3.88197e-11, global = 2.25507e-14, cumulative = 5.76407e-06
smoothSolver:  Solving for epsilon, Initial residual = 0.0253078, Final residual = 3.75103e-08, No Iterations 9
smoothSolver:  Solving for k, Initial residual = 0.0173364, Final residual = 6.67693e-08, No Iterations 10
Particle 0 Debug:
  Vol Integrated: 2.7e-08 (Expected: 2.7e-08)
  Buoyancy: (4.15863e-10 0.000505787 4.15863e-10)
  Viscous: (6.62534e-13 1.20216e-06 6.62535e-13)
  Gravity: (0 -0.00052974 0)
  Total: (4.16526e-10 -2.27506e-05 4.16525e-10)
ExecutionTime = 1532.96 s  ClockTime = 1533 s

Courant Number mean: 0.00602845 max: 1.01008
Interface Courant Number mean: 0 max: 0
deltaT = 0.00449855
Time = 0.17453

PIMPLE: iteration 1
smoothSolver:  Solving for alpha.water, Initial residual = 0.0705947, Final residual = 1.18198e-07, No Iterations 1000
Phase-1 volume fraction = 1  Min(alpha.water) = 1  Max(alpha.water) = 1
MULES: Correcting alpha.water
MULES: Correcting alpha.water
Phase-1 volume fraction = 1  Min(alpha.water) = 1  Max(alpha.water) = 1
DICPCG:  Solving for p_rgh, Initial residual = 0.106471, Final residual = 0.0053181, No Iterations 19
time step continuity errors : sum local = 2.47273e-06, global = 1.93017e-09, cumulative = 5.766e-06
DICPCG:  Solving for p_rgh, Initial residual = 0.0474466, Final residual = 0.00215533, No Iterations 22
time step continuity errors : sum local = 1.01134e-06, global = -3.51373e-08, cumulative = 5.73087e-06
DICPCG:  Solving for p_rgh, Initial residual = 0.0156954, Final residual = 8.22112e-08, No Iterations 593
time step continuity errors : sum local = 3.88381e-11, global = -1.93693e-14, cumulative = 5.73087e-06
smoothSolver:  Solving for epsilon, Initial residual = 0.0246941, Final residual = 2.81647e-08, No Iterations 9
smoothSolver:  Solving for k, Initial residual = 0.0167246, Final residual = 5.00932e-08, No Iterations 10
Particle 0 Debug:
  Vol Integrated: 2.7e-08 (Expected: 2.7e-08)
  Buoyancy: (7.5503e-10 0.000506694 7.55028e-10)
  Viscous: (3.09676e-12 1.21444e-06 3.09668e-12)
  Gravity: (0 -0.00052974 0)
  Total: (7.58126e-10 -2.18314e-05 7.58124e-10)
ExecutionTime = 1572.49 s  ClockTime = 1573 s

Courant Number mean: 0.00609294 max: 1.00956
Interface Courant Number mean: 0 max: 0
deltaT = 0.00445593
Time = 0.178986

PIMPLE: iteration 1
smoothSolver:  Solving for alpha.water, Initial residual = 0.0710974, Final residual = 1.18371e-07, No Iterations 1000
Phase-1 volume fraction = 1  Min(alpha.water) = 1  Max(alpha.water) = 1
MULES: Correcting alpha.water
MULES: Correcting alpha.water
Phase-1 volume fraction = 1  Min(alpha.water) = 1  Max(alpha.water) = 1
DICPCG:  Solving for p_rgh, Initial residual = 0.10879, Final residual = 0.00540753, No Iterations 19
time step continuity errors : sum local = 2.47441e-06, global = 2.61028e-09, cumulative = 5.73348e-06
DICPCG:  Solving for p_rgh, Initial residual = 0.0479351, Final residual = 0.0021739, No Iterations 22
time step continuity errors : sum local = 1.00346e-06, global = -3.32153e-08, cumulative = 5.70026e-06
DICPCG:  Solving for p_rgh, Initial residual = 0.0156447, Final residual = 8.20553e-08, No Iterations 593
time step continuity errors : sum local = 3.81484e-11, global = 2.3294e-14, cumulative = 5.70026e-06
smoothSolver:  Solving for epsilon, Initial residual = 0.024122, Final residual = 8.55897e-08, No Iterations 8
smoothSolver:  Solving for k, Initial residual = 0.0161554, Final residual = 3.75573e-08, No Iterations 10
Particle 0 Debug:
  Vol Integrated: 2.7e-08 (Expected: 2.7e-08)
  Buoyancy: (4.72817e-10 0.000507684 4.72821e-10)
  Viscous: (4.84259e-12 1.2266e-06 4.84243e-12)
  Gravity: (0 -0.00052974 0)
  Total: (4.7766e-10 -2.08291e-05 4.77663e-10)
ExecutionTime = 1611.53 s  ClockTime = 1612 s

Courant Number mean: 0.00615599 max: 1.00898
Interface Courant Number mean: 0 max: 0
deltaT = 0.00441629
Time = 0.183402

PIMPLE: iteration 1
smoothSolver:  Solving for alpha.water, Initial residual = 0.0702226, Final residual = 1.18222e-07, No Iterations 1000
Phase-1 volume fraction = 1  Min(alpha.water) = 1  Max(alpha.water) = 1
MULES: Correcting alpha.water
MULES: Correcting alpha.water
Phase-1 volume fraction = 1  Min(alpha.water) = 1  Max(alpha.water) = 1
DICPCG:  Solving for p_rgh, Initial residual = 0.111236, Final residual = 0.0055221, No Iterations 19
time step continuity errors : sum local = 2.48916e-06, global = 3.05093e-09, cumulative = 5.70331e-06
DICPCG:  Solving for p_rgh, Initial residual = 0.0484374, Final residual = 0.00220214, No Iterations 22
time step continuity errors : sum local = 1.00047e-06, global = -3.13651e-08, cumulative = 5.67195e-06
DICPCG:  Solving for p_rgh, Initial residual = 0.0156258, Final residual = 7.91456e-08, No Iterations 593
time step continuity errors : sum local = 3.62244e-11, global = -4.72563e-15, cumulative = 5.67195e-06
smoothSolver:  Solving for epsilon, Initial residual = 0.0235676, Final residual = 6.6178e-08, No Iterations 8
smoothSolver:  Solving for k, Initial residual = 0.0156209, Final residual = 9.26607e-08, No Iterations 9
Particle 0 Debug:
  Vol Integrated: 2.7e-08 (Expected: 2.7e-08)
  Buoyancy: (5.96642e-10 0.000508689 5.96642e-10)
  Viscous: (6.46414e-12 1.23802e-06 6.46391e-12)
  Gravity: (0 -0.00052974 0)
  Total: (6.03106e-10 -1.98125e-05 6.03106e-10)
ExecutionTime = 1650.66 s  ClockTime = 1651 s

Courant Number mean: 0.00621922 max: 1.00839
Interface Courant Number mean: 0 max: 0
deltaT = 0.00437954
Time = 0.187782

PIMPLE: iteration 1
smoothSolver:  Solving for alpha.water, Initial residual = 0.0674565, Final residual = 1.18646e-07, No Iterations 1000
Phase-1 volume fraction = 1  Min(alpha.water) = 1  Max(alpha.water) = 1
MULES: Correcting alpha.water
MULES: Correcting alpha.water
Phase-1 volume fraction = 1  Min(alpha.water) = 1  Max(alpha.water) = 1
DICPCG:  Solving for p_rgh, Initial residual = 0.113343, Final residual = 0.00566498, No Iterations 19
time step continuity errors : sum local = 2.51948e-06, global = 3.45446e-09, cumulative = 5.6754e-06
DICPCG:  Solving for p_rgh, Initial residual = 0.0489178, Final residual = 0.00223397, No Iterations 22
time step continuity errors : sum local = 1.00052e-06, global = -2.93255e-08, cumulative = 5.64608e-06
DICPCG:  Solving for p_rgh, Initial residual = 0.0156154, Final residual = 9.65796e-08, No Iterations 592
time step continuity errors : sum local = 4.35797e-11, global = 5.5077e-15, cumulative = 5.64608e-06
smoothSolver:  Solving for epsilon, Initial residual = 0.0230633, Final residual = 5.11984e-08, No Iterations 8
smoothSolver:  Solving for k, Initial residual = 0.0151168, Final residual = 7.15715e-08, No Iterations 9
Particle 0 Debug:
  Vol Integrated: 2.7e-08 (Expected: 2.7e-08)
  Buoyancy: (5.9159e-10 0.000509655 5.91589e-10)
  Viscous: (7.82608e-12 1.24833e-06 7.82576e-12)
  Gravity: (0 -0.00052974 0)
  Total: (5.99416e-10 -1.88368e-05 5.99415e-10)
ExecutionTime = 1690.2 s  ClockTime = 1691 s

Courant Number mean: 0.00628368 max: 1.00784
Interface Courant Number mean: 0 max: 0
deltaT = 0.0043455
Time = 0.192127

PIMPLE: iteration 1
smoothSolver:  Solving for alpha.water, Initial residual = 0.0804335, Final residual = 1.18471e-07, No Iterations 1000
Phase-1 volume fraction = 1  Min(alpha.water) = 1  Max(alpha.water) = 1
MULES: Correcting alpha.water
MULES: Correcting alpha.water
Phase-1 volume fraction = 1  Min(alpha.water) = 1  Max(alpha.water) = 1
DICPCG:  Solving for p_rgh, Initial residual = 0.115541, Final residual = 0.00537393, No Iterations 20
time step continuity errors : sum local = 2.35877e-06, global = 3.52226e-09, cumulative = 5.6496e-06
DICPCG:  Solving for p_rgh, Initial residual = 0.0491347, Final residual = 0.00239755, No Iterations 22
time step continuity errors : sum local = 1.05906e-06, global = -3.27976e-08, cumulative = 5.6168e-06
DICPCG:  Solving for p_rgh, Initial residual = 0.0158046, Final residual = 9.43961e-08, No Iterations 592
time step continuity errors : sum local = 4.20106e-11, global = 6.4888e-15, cumulative = 5.6168e-06
smoothSolver:  Solving for epsilon, Initial residual = 0.0225784, Final residual = 3.96594e-08, No Iterations 8
smoothSolver:  Solving for k, Initial residual = 0.0146494, Final residual = 5.54008e-08, No Iterations 9
Particle 0 Debug:
  Vol Integrated: 2.7e-08 (Expected: 2.7e-08)
  Buoyancy: (6.0294e-10 0.000510541 6.02937e-10)
  Viscous: (9.47769e-12 1.25732e-06 9.47729e-12)
  Gravity: (0 -0.00052974 0)
  Total: (6.12418e-10 -1.79414e-05 6.12414e-10)
ExecutionTime = 1729.41 s  ClockTime = 1730 s

Courant Number mean: 0.00634898 max: 1.00733
Interface Courant Number mean: 0 max: 0
deltaT = 0.0043139
Time = 0.196441

PIMPLE: iteration 1
smoothSolver:  Solving for alpha.water, Initial residual = 0.0773763, Final residual = 1.16601e-07, No Iterations 1000
Phase-1 volume fraction = 1  Min(alpha.water) = 1  Max(alpha.water) = 1
MULES: Correcting alpha.water
MULES: Correcting alpha.water
Phase-1 volume fraction = 1  Min(alpha.water) = 1  Max(alpha.water) = 1
DICPCG:  Solving for p_rgh, Initial residual = 0.117375, Final residual = 0.00553488, No Iterations 20
time step continuity errors : sum local = 2.40095e-06, global = 3.8686e-09, cumulative = 5.62067e-06
DICPCG:  Solving for p_rgh, Initial residual = 0.0496018, Final residual = 0.00243537, No Iterations 22
time step continuity errors : sum local = 1.06235e-06, global = -3.08919e-08, cumulative = 5.58978e-06
DICPCG:  Solving for p_rgh, Initial residual = 0.0158143, Final residual = 8.86027e-08, No Iterations 592
time step continuity errors : sum local = 3.89352e-11, global = -1.4633e-14, cumulative = 5.58978e-06
smoothSolver:  Solving for epsilon, Initial residual = 0.0221361, Final residual = 3.07722e-08, No Iterations 8
smoothSolver:  Solving for k, Initial residual = 0.0142183, Final residual = 4.29888e-08, No Iterations 9
Particle 0 Debug:
  Vol Integrated: 2.7e-08 (Expected: 2.7e-08)
  Buoyancy: (6.60498e-10 0.000511382 6.60492e-10)
  Viscous: (1.10205e-11 1.26495e-06 1.102e-11)
  Gravity: (0 -0.00052974 0)
  Total: (6.71519e-10 -1.70934e-05 6.71512e-10)
ExecutionTime = 1770.33 s  ClockTime = 1771 s

Courant Number mean: 0.00641508 max: 1.00686
Interface Courant Number mean: 0 max: 0
deltaT = 0.00428448
Time = 0.200726

PIMPLE: iteration 1
smoothSolver:  Solving for alpha.water, Initial residual = 0.0713881, Final residual = 1.15628e-07, No Iterations 1000
Phase-1 volume fraction = 1  Min(alpha.water) = 1  Max(alpha.water) = 1
MULES: Correcting alpha.water
MULES: Correcting alpha.water
Phase-1 volume fraction = 1  Min(alpha.water) = 1  Max(alpha.water) = 1
DICPCG:  Solving for p_rgh, Initial residual = 0.119409, Final residual = 0.00568802, No Iterations 20
time step continuity errors : sum local = 2.44022e-06, global = 4.12652e-09, cumulative = 5.5939e-06
DICPCG:  Solving for p_rgh, Initial residual = 0.0500424, Final residual = 0.00247144, No Iterations 22
time step continuity errors : sum local = 1.06571e-06, global = -2.8876e-08, cumulative = 5.56503e-06
DICPCG:  Solving for p_rgh, Initial residual = 0.0158395, Final residual = 8.07342e-08, No Iterations 592
time step continuity errors : sum local = 3.50609e-11, global = -6.88007e-15, cumulative = 5.56503e-06
smoothSolver:  Solving for epsilon, Initial residual = 0.0216972, Final residual = 2.39225e-08, No Iterations 8
smoothSolver:  Solving for k, Initial residual = 0.0138171, Final residual = 3.34456e-08, No Iterations 9
Particle 0 Debug:
  Vol Integrated: 2.7e-08 (Expected: 2.7e-08)
  Buoyancy: (7.76373e-10 0.000512164 7.76364e-10)
  Viscous: (1.27509e-11 1.27121e-06 1.27503e-11)
  Gravity: (0 -0.00052974 0)
  Total: (7.89124e-10 -1.63053e-05 7.89115e-10)
ExecutionTime = 1810.75 s  ClockTime = 1811 s

Courant Number mean: 0.00648258 max: 1.00644
Interface Courant Number mean: 0 max: 0
deltaT = 0.00425706
Time = 0.204983

PIMPLE: iteration 1
smoothSolver:  Solving for alpha.water, Initial residual = 0.0641224, Final residual = 1.14742e-07, No Iterations 1000
Phase-1 volume fraction = 1  Min(alpha.water) = 1  Max(alpha.water) = 1
MULES: Correcting alpha.water
MULES: Correcting alpha.water
Phase-1 volume fraction = 1  Min(alpha.water) = 1  Max(alpha.water) = 1
DICPCG:  Solving for p_rgh, Initial residual = 0.121352, Final residual = 0.00583603, No Iterations 20
time step continuity errors : sum local = 2.47866e-06, global = 4.33091e-09, cumulative = 5.56936e-06
DICPCG:  Solving for p_rgh, Initial residual = 0.0504557, Final residual = 0.00250423, No Iterations 22
time step continuity errors : sum local = 1.06842e-06, global = -2.68307e-08, cumulative = 5.54253e-06
DICPCG:  Solving for p_rgh, Initial residual = 0.0158755, Final residual = 9.67469e-08, No Iterations 591
time step continuity errors : sum local = 4.15594e-11, global = -2.44142e-14, cumulative = 5.54253e-06
smoothSolver:  Solving for epsilon, Initial residual = 0.0212601, Final residual = 9.06918e-08, No Iterations 7
smoothSolver:  Solving for k, Initial residual = 0.0134362, Final residual = 9.77827e-08, No Iterations 8
Particle 0 Debug:
  Vol Integrated: 2.7e-08 (Expected: 2.7e-08)
  Buoyancy: (8.57401e-10 0.000512844 8.57389e-10)
  Viscous: (1.43561e-11 1.27612e-06 1.43555e-11)
  Gravity: (0 -0.00052974 0)
  Total: (8.71757e-10 -1.56201e-05 8.71744e-10)
ExecutionTime = 1850.04 s  ClockTime = 1850 s

Courant Number mean: 0.00655074 max: 1.00606
Interface Courant Number mean: 0 max: 0
deltaT = 0.00423143
Time = 0.209214

PIMPLE: iteration 1
smoothSolver:  Solving for alpha.water, Initial residual = 0.0744622, Final residual = 1.13198e-07, No Iterations 1000
Phase-1 volume fraction = 1  Min(alpha.water) = 1  Max(alpha.water) = 1
MULES: Correcting alpha.water
MULES: Correcting alpha.water
Phase-1 volume fraction = 1  Min(alpha.water) = 1  Max(alpha.water) = 1
DICPCG:  Solving for p_rgh, Initial residual = 0.123094, Final residual = 0.00597111, No Iterations 20
time step continuity errors : sum local = 2.51169e-06, global = 4.48397e-09, cumulative = 5.54701e-06
DICPCG:  Solving for p_rgh, Initial residual = 0.0508805, Final residual = 0.00253529, No Iterations 22
time step continuity errors : sum local = 1.0702e-06, global = -2.48312e-08, cumulative = 5.52218e-06
DICPCG:  Solving for p_rgh, Initial residual = 0.015926, Final residual = 8.83528e-08, No Iterations 591
time step continuity errors : sum local = 3.75405e-11, global = -1.57384e-14, cumulative = 5.52218e-06
smoothSolver:  Solving for epsilon, Initial residual = 0.0208578, Final residual = 7.28668e-08, No Iterations 7
smoothSolver:  Solving for k, Initial residual = 0.0130782, Final residual = 7.84393e-08, No Iterations 8
Particle 0 Debug:
  Vol Integrated: 2.7e-08 (Expected: 2.7e-08)
  Buoyancy: (9.12617e-10 0.000513459 9.126e-10)
  Viscous: (1.58314e-11 1.27979e-06 1.58307e-11)
  Gravity: (0 -0.00052974 0)
  Total: (9.28448e-10 -1.50015e-05 9.28431e-10)
ExecutionTime = 1889.62 s  ClockTime = 1890 s

Courant Number mean: 0.00662018 max: 1.00572
Interface Courant Number mean: 0 max: 0
deltaT = 0.00420737
Time = 0.213422

PIMPLE: iteration 1
smoothSolver:  Solving for alpha.water, Initial residual = 0.0665924, Final residual = 1.11238e-07, No Iterations 1000
Phase-1 volume fraction = 1  Min(alpha.water) = 1  Max(alpha.water) = 1
MULES: Correcting alpha.water
MULES: Correcting alpha.water
Phase-1 volume fraction = 1  Min(alpha.water) = 1  Max(alpha.water) = 1
DICPCG:  Solving for p_rgh, Initial residual = 0.124667, Final residual = 0.00609986, No Iterations 20
time step continuity errors : sum local = 2.54337e-06, global = 4.60006e-09, cumulative = 5.52678e-06
DICPCG:  Solving for p_rgh, Initial residual = 0.051262, Final residual = 0.00255725, No Iterations 22
time step continuity errors : sum local = 1.06939e-06, global = -2.28621e-08, cumulative = 5.50392e-06
DICPCG:  Solving for p_rgh, Initial residual = 0.0159678, Final residual = 8.37526e-08, No Iterations 591
time step continuity errors : sum local = 3.52482e-11, global = 1.10409e-14, cumulative = 5.50392e-06
smoothSolver:  Solving for epsilon, Initial residual = 0.0204579, Final residual = 5.86568e-08, No Iterations 7
smoothSolver:  Solving for k, Initial residual = 0.0127391, Final residual = 6.30814e-08, No Iterations 8
Particle 0 Debug:
  Vol Integrated: 2.7e-08 (Expected: 2.7e-08)
  Buoyancy: (9.54719e-10 0.000514008 9.54699e-10)
  Viscous: (1.73006e-11 1.28228e-06 1.72998e-11)
  Gravity: (0 -0.00052974 0)
  Total: (9.7202e-10 -1.44501e-05 9.71998e-10)
ExecutionTime = 1929.31 s  ClockTime = 1930 s

Courant Number mean: 0.00669032 max: 1.00542
Interface Courant Number mean: 0 max: 0
deltaT = 0.0041847
Time = 0.217606

PIMPLE: iteration 1
smoothSolver:  Solving for alpha.water, Initial residual = 0.061817, Final residual = 1.54315e-07, No Iterations 1000
Phase-1 volume fraction = 1  Min(alpha.water) = 1  Max(alpha.water) = 1
MULES: Correcting alpha.water
MULES: Correcting alpha.water
Phase-1 volume fraction = 1  Min(alpha.water) = 1  Max(alpha.water) = 1
DICPCG:  Solving for p_rgh, Initial residual = 0.126265, Final residual = 0.00621615, No Iterations 20
time step continuity errors : sum local = 2.57017e-06, global = 4.65719e-09, cumulative = 5.50858e-06
DICPCG:  Solving for p_rgh, Initial residual = 0.051639, Final residual = 0.00257512, No Iterations 22
time step continuity errors : sum local = 1.06715e-06, global = -2.10493e-08, cumulative = 5.48753e-06
DICPCG:  Solving for p_rgh, Initial residual = 0.0160139, Final residual = 7.8706e-08, No Iterations 591
time step continuity errors : sum local = 3.2823e-11, global = -6.95033e-15, cumulative = 5.48753e-06
smoothSolver:  Solving for epsilon, Initial residual = 0.0200886, Final residual = 4.73122e-08, No Iterations 7
smoothSolver:  Solving for k, Initial residual = 0.012426, Final residual = 5.08606e-08, No Iterations 8
Particle 0 Debug:
  Vol Integrated: 2.7e-08 (Expected: 2.7e-08)
  Buoyancy: (1.02572e-09 0.000514483 1.02569e-09)
  Viscous: (1.88364e-11 1.28374e-06 1.88356e-11)
  Gravity: (0 -0.00052974 0)
[...]

Courant Number mean: 0.0134544 max: 1.00269
Interface Courant Number mean: 0 max: 0
deltaT = 0.00298383
Time = 0.83496

PIMPLE: iteration 1
smoothSolver:  Solving for alpha.water, Initial residual = 0.0240019, Final residual = 8.76248e-08, No Iterations 1000
Phase-1 volume fraction = 1  Min(alpha.water) = 1  Max(alpha.water) = 1
MULES: Correcting alpha.water
MULES: Correcting alpha.water
Phase-1 volume fraction = 1  Min(alpha.water) = 1  Max(alpha.water) = 1
DICPCG:  Solving for p_rgh, Initial residual = 0.158376, Final residual = 0.00788304, No Iterations 25
time step continuity errors : sum local = 1.55158e-06, global = 1.08043e-10, cumulative = 4.18403e-06
DICPCG:  Solving for p_rgh, Initial residual = 0.0606818, Final residual = 0.00303144, No Iterations 32
time step continuity errors : sum local = 5.99654e-07, global = -9.38164e-10, cumulative = 4.18309e-06
DICPCG:  Solving for p_rgh, Initial residual = 0.0174981, Final residual = 8.66194e-08, No Iterations 595
time step continuity errors : sum local = 1.7394e-11, global = 4.20677e-15, cumulative = 4.18309e-06
smoothSolver:  Solving for epsilon, Initial residual = 0.0115757, Final residual = 8.0959e-09, No Iterations 4
smoothSolver:  Solving for k, Initial residual = 0.00534197, Final residual = 8.90671e-09, No Iterations 4
Particle 0 Debug:
  Vol Integrated: 2.69981e-08 (Expected: 2.7e-08)
  Buoyancy: (6.02914e-06 0.000526528 6.03541e-06)
  Viscous: (3.20197e-08 1.80517e-06 3.20319e-08)
  Gravity: (0 -0.00052974 0)
  Total: (6.06116e-06 -1.40655e-06 6.06745e-06)
ExecutionTime = 9844.17 s  ClockTime = 9845 s

Courant Number mean: 0.013454 max: 0.999934
Interface Courant Number mean: 0 max: 0
deltaT = 0.00298403
Time = 0.837944

PIMPLE: iteration 1
smoothSolver:  Solving for alpha.water, Initial residual = 0.0200342, Final residual = 8.76331e-08, No Iterations 1000
Phase-1 volume fraction = 1  Min(alpha.water) = 1  Max(alpha.water) = 1
MULES: Correcting alpha.water
MULES: Correcting alpha.water
Phase-1 volume fraction = 1  Min(alpha.water) = 1  Max(alpha.water) = 1
DICPCG:  Solving for p_rgh, Initial residual = 0.154392, Final residual = 0.00761025, No Iterations 24
time step continuity errors : sum local = 1.61428e-06, global = 5.8998e-11, cumulative = 4.18315e-06
DICPCG:  Solving for p_rgh, Initial residual = 0.0594888, Final residual = 0.00289465, No Iterations 30
time step continuity errors : sum local = 6.19816e-07, global = -8.91956e-10, cumulative = 4.18226e-06
DICPCG:  Solving for p_rgh, Initial residual = 0.0166194, Final residual = 9.30427e-08, No Iterations 595
time step continuity errors : sum local = 2.01681e-11, global = 2.29104e-14, cumulative = 4.18226e-06
smoothSolver:  Solving for epsilon, Initial residual = 0.0116152, Final residual = 8.11748e-09, No Iterations 4
smoothSolver:  Solving for k, Initial residual = 0.00534766, Final residual = 8.95071e-09, No Iterations 4
Particle 0 Debug:
  Vol Integrated: 2.7e-08 (Expected: 2.7e-08)
  Buoyancy: (2.12566e-05 0.00052351 2.12474e-05)
  Viscous: (8.55098e-09 1.77673e-06 8.53519e-09)
  Gravity: (0 -0.00052974 0)
  Total: (2.12652e-05 -4.45344e-06 2.12559e-05)
ExecutionTime = 9892.92 s  ClockTime = 9894 s

Courant Number mean: 0.013497 max: 0.999478
Interface Courant Number mean: 0 max: 0
deltaT = 0.00298559
Time = 0.84093

PIMPLE: iteration 1
smoothSolver:  Solving for alpha.water, Initial residual = 0.0232811, Final residual = 8.76303e-08, No Iterations 1000
Phase-1 volume fraction = 1  Min(alpha.water) = 1  Max(alpha.water) = 1
MULES: Correcting alpha.water
MULES: Correcting alpha.water
Phase-1 volume fraction = 1  Min(alpha.water) = 1  Max(alpha.water) = 1
DICPCG:  Solving for p_rgh, Initial residual = 0.161084, Final residual = 0.0079535, No Iterations 26
time step continuity errors : sum local = 1.76894e-06, global = 4.43615e-11, cumulative = 4.1823e-06
DICPCG:  Solving for p_rgh, Initial residual = 0.0563381, Final residual = 0.00269074, No Iterations 31
time step continuity errors : sum local = 5.98662e-07, global = -1.03843e-09, cumulative = 4.18127e-06
DICPCG:  Solving for p_rgh, Initial residual = 0.0155432, Final residual = 8.46207e-08, No Iterations 595
time step continuity errors : sum local = 1.90948e-11, global = 2.65789e-14, cumulative = 4.18127e-06
smoothSolver:  Solving for epsilon, Initial residual = 0.0116674, Final residual = 8.24783e-09, No Iterations 4
smoothSolver:  Solving for k, Initial residual = 0.00535353, Final residual = 9.10219e-09, No Iterations 4
Particle 0 Debug:
  Vol Integrated: 2.7e-08 (Expected: 2.7e-08)
  Buoyancy: (1.87867e-05 0.000525248 1.87896e-05)
  Viscous: (-3.5551e-08 1.74949e-06 -3.56176e-08)
  Gravity: (0 -0.00052974 0)
  Total: (1.87511e-05 -2.74245e-06 1.8754e-05)
ExecutionTime = 9942.11 s  ClockTime = 9943 s

Courant Number mean: 0.0135477 max: 1.00057
Interface Courant Number mean: 0 max: 0
deltaT = 0.00298389
Time = 0.843914

PIMPLE: iteration 1
smoothSolver:  Solving for alpha.water, Initial residual = 0.0220173, Final residual = 8.71951e-08, No Iterations 1000
Phase-1 volume fraction = 1  Min(alpha.water) = 1  Max(alpha.water) = 1
MULES: Correcting alpha.water
MULES: Correcting alpha.water
Phase-1 volume fraction = 1  Min(alpha.water) = 1  Max(alpha.water) = 1
DICPCG:  Solving for p_rgh, Initial residual = 0.155016, Final residual = 0.00774603, No Iterations 27
time step continuity errors : sum local = 1.71879e-06, global = 3.77823e-11, cumulative = 4.1813e-06
DICPCG:  Solving for p_rgh, Initial residual = 0.0553237, Final residual = 0.00258163, No Iterations 32
time step continuity errors : sum local = 5.66946e-07, global = -1.07897e-09, cumulative = 4.18022e-06
DICPCG:  Solving for p_rgh, Initial residual = 0.0154927, Final residual = 9.31878e-08, No Iterations 594
time step continuity errors : sum local = 2.07556e-11, global = -3.31787e-14, cumulative = 4.18022e-06
smoothSolver:  Solving for epsilon, Initial residual = 0.0117155, Final residual = 8.30771e-09, No Iterations 4
smoothSolver:  Solving for k, Initial residual = 0.00535801, Final residual = 9.18774e-09, No Iterations 4
Particle 0 Debug:
  Vol Integrated: 2.7e-08 (Expected: 2.7e-08)
  Buoyancy: (3.89529e-06 0.000525811 3.82422e-06)
  Viscous: (-3.48968e-08 1.72625e-06 -3.48552e-08)
  Gravity: (0 -0.00052974 0)
  Total: (3.86039e-06 -2.20245e-06 3.78936e-06)
ExecutionTime = 9989.29 s  ClockTime = 9990 s

Courant Number mean: 0.0135804 max: 0.997731
Interface Courant Number mean: 0 max: 0
deltaT = 0.00299067
Time = 0.846904

PIMPLE: iteration 1
smoothSolver:  Solving for alpha.water, Initial residual = 0.0238405, Final residual = 8.75019e-08, No Iterations 1000
Phase-1 volume fraction = 1  Min(alpha.water) = 1  Max(alpha.water) = 1
MULES: Correcting alpha.water
MULES: Correcting alpha.water
Phase-1 volume fraction = 1  Min(alpha.water) = 1  Max(alpha.water) = 1
DICPCG:  Solving for p_rgh, Initial residual = 0.154716, Final residual = 0.00766826, No Iterations 28
time step continuity errors : sum local = 1.68844e-06, global = 1.04625e-11, cumulative = 4.18023e-06
DICPCG:  Solving for p_rgh, Initial residual = 0.0574129, Final residual = 0.00269048, No Iterations 32
time step continuity errors : sum local = 5.90844e-07, global = -1.15323e-09, cumulative = 4.17908e-06
DICPCG:  Solving for p_rgh, Initial residual = 0.0161514, Final residual = 7.61865e-08, No Iterations 595
time step continuity errors : sum local = 1.69675e-11, global = -1.0752e-14, cumulative = 4.17908e-06
smoothSolver:  Solving for epsilon, Initial residual = 0.0117818, Final residual = 8.45858e-09, No Iterations 4
smoothSolver:  Solving for k, Initial residual = 0.00537221, Final residual = 9.40216e-09, No Iterations 4
Particle 0 Debug:
  Vol Integrated: 2.7e-08 (Expected: 2.7e-08)
  Buoyancy: (-4.11345e-07 0.000539991 -4.022e-07)
  Viscous: (-5.54527e-09 1.71035e-06 -5.49104e-09)
  Gravity: (0 -0.00052974 0)
  Total: (-4.1689e-07 1.19615e-05 -4.07692e-07)
ExecutionTime = 10035.8 s  ClockTime = 10037 s

Courant Number mean: 0.0136494 max: 0.997932
Interface Courant Number mean: 0 max: 0
deltaT = 0.00299687
Time = 0.849901

PIMPLE: iteration 1
smoothSolver:  Solving for alpha.water, Initial residual = 0.0196395, Final residual = 8.74208e-08, No Iterations 1000
Phase-1 volume fraction = 1  Min(alpha.water) = 1  Max(alpha.water) = 1
MULES: Correcting alpha.water
MULES: Correcting alpha.water
Phase-1 volume fraction = 1  Min(alpha.water) = 1  Max(alpha.water) = 1
DICPCG:  Solving for p_rgh, Initial residual = 0.159172, Final residual = 0.00773612, No Iterations 31
time step continuity errors : sum local = 1.68511e-06, global = -1.577e-10, cumulative = 4.17892e-06
DICPCG:  Solving for p_rgh, Initial residual = 0.0575933, Final residual = 0.00275371, No Iterations 34
time step continuity errors : sum local = 5.9451e-07, global = -1.37983e-09, cumulative = 4.17754e-06
DICPCG:  Solving for p_rgh, Initial residual = 0.0164444, Final residual = 7.70217e-08, No Iterations 595
time step continuity errors : sum local = 1.68459e-11, global = -4.13497e-15, cumulative = 4.17754e-06
smoothSolver:  Solving for epsilon, Initial residual = 0.0117999, Final residual = 8.51585e-09, No Iterations 4
smoothSolver:  Solving for k, Initial residual = 0.00537417, Final residual = 9.5511e-09, No Iterations 4
Particle 0 Debug:
  Vol Integrated: 2.69991e-08 (Expected: 2.7e-08)
  Buoyancy: (3.11256e-06 0.000518198 3.05904e-06)
  Viscous: (1.82393e-08 1.74357e-06 1.8585e-08)
  Gravity: (0 -0.00052974 0)
  Total: (3.1308e-06 -9.79859e-06 3.07762e-06)
ExecutionTime = 10082.7 s  ClockTime = 10083 s

Courant Number mean: 0.0137068 max: 0.997774
Interface Courant Number mean: 0 max: 0
deltaT = 0.00300356
Time = 0.852905

PIMPLE: iteration 1
smoothSolver:  Solving for alpha.water, Initial residual = 0.0196733, Final residual = 8.7776e-08, No Iterations 1000
Phase-1 volume fraction = 1  Min(alpha.water) = 1  Max(alpha.water) = 1
MULES: Correcting alpha.water
MULES: Correcting alpha.water
Phase-1 volume fraction = 1  Min(alpha.water) = 1  Max(alpha.water) = 1
DICPCG:  Solving for p_rgh, Initial residual = 0.152716, Final residual = 0.00758234, No Iterations 29
time step continuity errors : sum local = 1.54048e-06, global = -1.78422e-11, cumulative = 4.17753e-06
DICPCG:  Solving for p_rgh, Initial residual = 0.0603188, Final residual = 0.00297731, No Iterations 32
time step continuity errors : sum local = 6.04267e-07, global = -1.20027e-09, cumulative = 4.17633e-06
DICPCG:  Solving for p_rgh, Initial residual = 0.0171179, Final residual = 8.2306e-08, No Iterations 595
time step continuity errors : sum local = 1.69322e-11, global = -1.64668e-15, cumulative = 4.17633e-06
smoothSolver:  Solving for epsilon, Initial residual = 0.0118559, Final residual = 8.68257e-09, No Iterations 4
smoothSolver:  Solving for k, Initial residual = 0.00539086, Final residual = 9.76477e-09, No Iterations 4
Particle 0 Debug:
  Vol Integrated: 2.69994e-08 (Expected: 2.7e-08)
  Buoyancy: (4.14916e-06 0.000509794 4.13836e-06)
  Viscous: (4.10608e-08 1.87016e-06 4.11221e-08)
  Gravity: (0 -0.00052974 0)
  Total: (4.19022e-06 -1.80754e-05 4.17949e-06)
ExecutionTime = 10128.2 s  ClockTime = 10129 s

Courant Number mean: 0.0137673 max: 0.995018
Interface Courant Number mean: 0 max: 0
deltaT = 0.00301859
Time = 0.855923

PIMPLE: iteration 1
smoothSolver:  Solving for alpha.water, Initial residual = 0.0197167, Final residual = 8.80177e-08, No Iterations 1000
Phase-1 volume fraction = 1  Min(alpha.water) = 1  Max(alpha.water) = 1
MULES: Correcting alpha.water
MULES: Correcting alpha.water
Phase-1 volume fraction = 1  Min(alpha.water) = 1  Max(alpha.water) = 1
DICPCG:  Solving for p_rgh, Initial residual = 0.158425, Final residual = 0.00786348, No Iterations 24
time step continuity errors : sum local = 1.6221e-06, global = 7.86197e-11, cumulative = 4.1764e-06
DICPCG:  Solving for p_rgh, Initial residual = 0.0611562, Final residual = 0.00300918, No Iterations 30
time step continuity errors : sum local = 6.23825e-07, global = -8.36899e-10, cumulative = 4.17557e-06
DICPCG:  Solving for p_rgh, Initial residual = 0.0175325, Final residual = 9.30043e-08, No Iterations 595
time step continuity errors : sum local = 1.9561e-11, global = 1.01509e-14, cumulative = 4.17557e-06
smoothSolver:  Solving for epsilon, Initial residual = 0.0119656, Final residual = 9.00151e-09, No Iterations 4
smoothSolver:  Solving for k, Initial residual = 0.0054279, Final residual = 1.01611e-08, No Iterations 4
Particle 0 Debug:
  Vol Integrated: 2.7e-08 (Expected: 2.7e-08)
  Buoyancy: (2.60021e-05 0.000515582 2.59694e-05)
  Viscous: (5.65092e-09 1.93412e-06 5.62892e-09)
  Gravity: (0 -0.00052974 0)
  Total: (2.60077e-05 -1.2224e-05 2.5975e-05)
ExecutionTime = 10177.7 s  ClockTime = 10178 s

Courant Number mean: 0.0138751 max: 0.995895
Interface Courant Number mean: 0 max: 0
deltaT = 0.00303104
Time = 0.858954

PIMPLE: iteration 1
smoothSolver:  Solving for alpha.water, Initial residual = 0.0226931, Final residual = 8.83127e-08, No Iterations 1000
Phase-1 volume fraction = 1  Min(alpha.water) = 1  Max(alpha.water) = 1
MULES: Correcting alpha.water
MULES: Correcting alpha.water
Phase-1 volume fraction = 1  Min(alpha.water) = 1  Max(alpha.water) = 1
DICPCG:  Solving for p_rgh, Initial residual = 0.152522, Final residual = 0.00751491, No Iterations 27
time step continuity errors : sum local = 1.64539e-06, global = 2.44771e-11, cumulative = 4.17559e-06
DICPCG:  Solving for p_rgh, Initial residual = 0.0578113, Final residual = 0.00288226, No Iterations 31
time step continuity errors : sum local = 6.29605e-07, global = -1.08114e-09, cumulative = 4.17451e-06
DICPCG:  Solving for p_rgh, Initial residual = 0.0165086, Final residual = 8.26311e-08, No Iterations 595
time step continuity errors : sum local = 1.83212e-11, global = -2.9605e-15, cumulative = 4.17451e-06
smoothSolver:  Solving for epsilon, Initial residual = 0.0120659, Final residual = 9.41887e-09, No Iterations 4
smoothSolver:  Solving for k, Initial residual = 0.00545928, Final residual = 1.06429e-08, No Iterations 4
Particle 0 Debug:
  Vol Integrated: 2.7e-08 (Expected: 2.7e-08)
  Buoyancy: (1.50009e-05 0.000509068 1.5013e-05)
  Viscous: (-5.45755e-08 1.9622e-06 -5.46609e-08)
  Gravity: (0 -0.00052974 0)
  Total: (1.49463e-05 -1.87099e-05 1.49583e-05)
ExecutionTime = 10224.7 s  ClockTime = 10225 s

Courant Number mean: 0.0139743 max: 0.995022
Interface Courant Number mean: 0 max: 0
deltaT = 0.0030462
Time = 0.862

PIMPLE: iteration 1
smoothSolver:  Solving for alpha.water, Initial residual = 0.0213115, Final residual = 8.85542e-08, No Iterations 1000
Phase-1 volume fraction = 1  Min(alpha.water) = 1  Max(alpha.water) = 1
MULES: Correcting alpha.water
MULES: Correcting alpha.water
Phase-1 volume fraction = 1  Min(alpha.water) = 1  Max(alpha.water) = 1
DICPCG:  Solving for p_rgh, Initial residual = 0.158692, Final residual = 0.00765393, No Iterations 23
time step continuity errors : sum local = 1.7217e-06, global = 7.61629e-11, cumulative = 4.17459e-06
DICPCG:  Solving for p_rgh, Initial residual = 0.0598597, Final residual = 0.00296374, No Iterations 30
time step continuity errors : sum local = 6.67999e-07, global = -7.70634e-10, cumulative = 4.17382e-06
DICPCG:  Solving for p_rgh, Initial residual = 0.0171133, Final residual = 8.54517e-08, No Iterations 594
time step continuity errors : sum local = 1.95046e-11, global = 7.40389e-15, cumulative = 4.17382e-06
smoothSolver:  Solving for epsilon, Initial residual = 0.012171, Final residual = 9.88207e-09, No Iterations 4
smoothSolver:  Solving for k, Initial residual = 0.00549982, Final residual = 1.11913e-08, No Iterations 4
Particle 0 Debug:
  Vol Integrated: 2.7e-08 (Expected: 2.7e-08)
  Buoyancy: (-2.50585e-06 0.000533252 -2.54364e-06)
  Viscous: (-5.00522e-08 1.87836e-06 -5.01353e-08)
  Gravity: (0 -0.00052974 0)
  Total: (-2.55591e-06 5.39042e-06 -2.59377e-06)
ExecutionTime = 10270.8 s  ClockTime = 10272 s

Courant Number mean: 0.0140936 max: 0.992734
Interface Courant Number mean: 0 max: 0
deltaT = 0.0030685
Time = 0.865069

PIMPLE: iteration 1
smoothSolver:  Solving for alpha.water, Initial residual = 0.0225291, Final residual = 8.89674e-08, No Iterations 1000
Phase-1 volume fraction = 1  Min(alpha.water) = 1  Max(alpha.water) = 1
MULES: Correcting alpha.water
MULES: Correcting alpha.water
Phase-1 volume fraction = 1  Min(alpha.water) = 1  Max(alpha.water) = 1
DICPCG:  Solving for p_rgh, Initial residual = 0.162452, Final residual = 0.00784482, No Iterations 29
time step continuity errors : sum local = 1.91185e-06, global = -5.34207e-11, cumulative = 4.17376e-06
DICPCG:  Solving for p_rgh, Initial residual = 0.0596406, Final residual = 0.00282664, No Iterations 32
time step continuity errors : sum local = 6.87058e-07, global = -1.27077e-09, cumulative = 4.17249e-06
DICPCG:  Solving for p_rgh, Initial residual = 0.0170628, Final residual = 8.89222e-08, No Iterations 594
time step continuity errors : sum local = 2.18143e-11, global = 2.09819e-15, cumulative = 4.17249e-06
smoothSolver:  Solving for epsilon, Initial residual = 0.0122555, Final residual = 1.0356e-08, No Iterations 4
smoothSolver:  Solving for k, Initial residual = 0.00553753, Final residual = 1.18183e-08, No Iterations 4
Particle 0 Debug:
  Vol Integrated: 2.7e-08 (Expected: 2.7e-08)
  Buoyancy: (7.58948e-06 0.000530299 7.56571e-06)
  Viscous: (-3.91808e-08 1.80769e-06 -3.92417e-08)
  Gravity: (0 -0.00052974 0)
  Total: (7.5503e-06 2.36686e-06 7.52646e-06)
ExecutionTime = 10314.8 s  ClockTime = 10315 s

Courant Number mean: 0.014239 max: 0.99343
Interface Courant Number mean: 0 max: 0
deltaT = 0.00308879
Time = 0.868158

PIMPLE: iteration 1
smoothSolver:  Solving for alpha.water, Initial residual = 0.0251367, Final residual = 8.88154e-08, No Iterations 1000
Phase-1 volume fraction = 1  Min(alpha.water) = 1  Max(alpha.water) = 1
MULES: Correcting alpha.water
MULES: Correcting alpha.water
Phase-1 volume fraction = 1  Min(alpha.water) = 1  Max(alpha.water) = 1
DICPCG:  Solving for p_rgh, Initial residual = 0.175967, Final residual = 0.00866942, No Iterations 24
time step continuity errors : sum local = 2.04196e-06, global = 8.69424e-11, cumulative = 4.17258e-06
DICPCG:  Solving for p_rgh, Initial residual = 0.0641927, Final residual = 0.00313634, No Iterations 27
time step continuity errors : sum local = 7.4071e-07, global = -7.33705e-10, cumulative = 4.17185e-06
DICPCG:  Solving for p_rgh, Initial residual = 0.017865, Final residual = 9.4678e-08, No Iterations 594
time step continuity errors : sum local = 2.25365e-11, global = 1.09467e-14, cumulative = 4.17185e-06
smoothSolver:  Solving for epsilon, Initial residual = 0.0123065, Final residual = 1.09062e-08, No Iterations 4
smoothSolver:  Solving for k, Initial residual = 0.00557249, Final residual = 1.25056e-08, No Iterations 4
Particle 0 Debug:
  Vol Integrated: 2.7e-08 (Expected: 2.7e-08)
  Buoyancy: (2.19814e-06 0.000536198 2.14156e-06)
  Viscous: (-2.64128e-08 1.75764e-06 -2.63384e-08)
  Gravity: (0 -0.00052974 0)
  Total: (2.17172e-06 8.21514e-06 2.11522e-06)
ExecutionTime = 10359.9 s  ClockTime = 10361 s

Courant Number mean: 0.0143756 max: 0.992652
Interface Courant Number mean: 0 max: 0
deltaT = 0.00311165
Time = 0.871269

PIMPLE: iteration 1
smoothSolver:  Solving for alpha.water, Initial residual = 0.0259935, Final residual = 8.90539e-08, No Iterations 1000
Phase-1 volume fraction = 1  Min(alpha.water) = 1  Max(alpha.water) = 1
MULES: Correcting alpha.water
MULES: Correcting alpha.water
Phase-1 volume fraction = 1  Min(alpha.water) = 1  Max(alpha.water) = 1
DICPCG:  Solving for p_rgh, Initial residual = 0.145044, Final residual = 0.0071672, No Iterations 49
time step continuity errors : sum local = 1.65861e-06, global = -2.35843e-09, cumulative = 4.16949e-06
DICPCG:  Solving for p_rgh, Initial residual = 0.0532308, Final residual = 0.00256231, No Iterations 122
time step continuity errors : sum local = 5.75721e-07, global = 9.00708e-09, cumulative = 4.17849e-06
